<?xml version="1.0" encoding="UTF-8"?>

<!-- generated on Sun Dec 11 16:27:29 2016 by SUMO duarouter Version 0.28.0
<?xml version="1.0" encoding="UTF-8"?>

<configuration xmlns:xsi="http://www.w3.org/2001/XMLSchema-instance" xsi:noNamespaceSchemaLocation="http://sumo.dlr.de/xsd/duarouterConfiguration.xsd">

    <input>
        <net-file value="osm.net.xml"/>
        <trip-files value="osm.passenger.trips.xml"/>
    </input>

    <output>
        <output-file value="osm.passenger.rou.xml"/>
    </output>

    <processing>
        <ignore-errors value="true"/>
    </processing>

    <time>
        <begin value="0"/>
        <end value="300.0"/>
    </time>

    <report>
        <no-warnings value="true"/>
        <no-step-log value="true"/>
    </report>

</configuration>
-->

<routes xmlns:xsi="http://www.w3.org/2001/XMLSchema-instance" xsi:noNamespaceSchemaLocation="http://sumo.dlr.de/xsd/routes_file.xsd">
    <vType id="passenger" vClass="passenger"/>
    <vehicle id="veh0" type="passenger" depart="0.00" departLane="best">
        <route edges="202770801#0 202770801#1 202770801#2 -202770987 202770985#1 -118682393#1 -118682393#0 -118682201 106624240 106624248 118682222#0 118682222#1 106624241 106624250 -106624250"/>
    </vehicle>
    <vehicle id="veh1" type="passenger" depart="0.53" departLane="best">
        <route edges="-7175219#1 7198338#1 7080847#6 7080847#7 -80565098#2 -80565098#1 -80565098#0 -7094519#5 -7094519#4 -7094519#3 -7117437#4 -7117437#3 -7117437#2 -7117437#1 -7117437#0"/>
    </vehicle>
    <vehicle id="veh3" type="passenger" depart="1.60" departLane="best">
        <route edges="-7311009#2 7311009#2 7131987#2 7131987#3 7131987#4 -7150791#1 -7150791#0 80566602#5 80566602#6 80566602#7 106624248 118682222#0 118682222#1 106624225 106624243#0 106624243#2 106624243#3 106624243#4 7116191#0 7116191#1 7116191#2 7116191#3 7116191#4 7116191#5 7116191#6 7116191#7 7249756#1 7249756#2 7249756#3 7249756#4 7249756#5 7249756#6 7249756#7 118651687#0 118651687#1 -118651687#1"/>
    </vehicle>
    <vehicle id="veh4" type="passenger" depart="2.13" departLane="best">
        <route edges="-7123182#1 -7123182#0 -80565714#1 -80565714#0 62207073#1 62207073#2 -185937919#1 -185937919#0 -118584136#1 -118584136#0 35147687 123541512#1-AddedOnRampEdge 123541512#1 123541512#1-AddedOffRampEdge 123541512#2"/>
    </vehicle>
    <vehicle id="veh5" type="passenger" depart="2.67" departLane="best">
        <route edges="-118651687#1 118651687#1 118651687#2 118651690#0 118651690#1 -7311245#1 -182019820#7 -7105326#0"/>
    </vehicle>
    <vehicle id="veh6" type="passenger" depart="3.20" departLane="best">
        <route edges="202770843 202770801#1 202770801#2 -202770987 202770985#1 -125135481#7 -125135481#6 -125135481#5 -125135481#4 -125135481#3 -125135481#2 -125135481#1 -125135481#0 -105141649#6 -105141649#5 -105141649#4 -105141649#3 -105141649#2 -105141649#1 -62207109#2 -62207109#1 -62207109#0 -80565078 -80565098#4 -80565098#3 -80565098#2 -80565098#1 -182019820#12 -182019820#11 -182019820#10 -182019820#9 182019820#9"/>
    </vehicle>
    <vehicle id="veh7" type="passenger" depart="3.73" departLane="best">
        <route edges="-7123182#4 -7123182#3 -7123182#2 -7123182#1 -7123182#0 -80565714#1 -80565714#0 -62207073#0 62207073#0"/>
    </vehicle>
    <vehicle id="veh8" type="passenger" depart="4.27" departLane="best">
        <route edges="7133071#1 -7172369 7094519#0 7094519#1 7094519#2 7094519#3 7094519#4 7094519#5 80565098#0 80565098#1 80565098#2 80565098#3 80565098#4 80565078 7150721 62207109#1 62207109#2 105141649#1 105141649#2 105141649#3 105141649#4 105141649#5 -105141649#5"/>
    </vehicle>
    <vehicle id="veh9" type="passenger" depart="4.80" departLane="best">
        <route edges="7131987#0 7131987#1 7131987#2 7131987#3 7131987#4 -7150791#1 -7150791#0 80566602#5 80566602#6 80566602#7 106624248 118682222#0 118682222#1 106624241 106624250 -106624234#0 -106624244 106624231#0 106624231#1 -7245118#0 7080847#0 7080847#1 7080847#2 7080847#3 7080847#4 7080847#5 7080847#6 7080847#7 -80565098#2 -80565098#1 -80565098#0 -7094519#5 7152027#0 7117915#3 7117915#4 7117915#5"/>
    </vehicle>
    <vehicle id="veh10" type="passenger" depart="5.33" departLane="best">
        <route edges="-7245627#1 -7245627#0 182019820#12 80565098#1 80565098#2 -7080847#7 -7080847#6 -7080847#5 -7080847#4 -7080847#3 -7080847#2 -7080847#1 -7080847#0 7245118#0 7245118#1 118584136#0 7040996 123541495#0 123541495#0-AddedOffRampEdge 7026422 106624247 -80566602#7 -80566602#6 -80566602#5 -80566602#4 -80566602#3 7233219#0 7233219#1 7085899#1 7085899#2 7085899#3 7163621 -7070561"/>
    </vehicle>
    <vehicle id="veh11" type="passenger" depart="5.87" departLane="best">
        <route edges="7327325#1 7327325#2 7327325#3 7327325#4 7327325#5 7327325#6 7327325#7 -7080847#1 -7080847#0 7245118#0 7245118#1 118584136#0 118584136#1 185937919#0 185937919#1 118682210#0 118682210#1 7123182#6 7123182#7 -7237382#1 -7237382#0"/>
    </vehicle>
    <vehicle id="veh13" type="passenger" depart="6.94" departLane="best">
        <route edges="7182895 -7151339#0 7337276#0 7337276#1 182019820#6 182019820#7 182019820#8 182019820#9 182019820#10 182019820#11 182019820#12 80565098#1 80565098#2 80565098#3 -7117365#2 7084393#1"/>
    </vehicle>
    <vehicle id="veh14" type="passenger" depart="7.47" departLane="best">
        <route edges="7131987#2 7131987#3 7131987#4 7150791#2 7150791#3"/>
    </vehicle>
    <vehicle id="veh15" type="passenger" depart="8.00" departLane="best">
        <route edges="106624247 118682221#0 118682221#1 118682201 -80565725#1 -80565725#0 -62207073#2 -62207073#1 80565714#0 80565714#1 80565714#2 80565714#3 80565714#4 80565714#5"/>
    </vehicle>
    <vehicle id="veh16" type="passenger" depart="8.54" departLane="best">
        <route edges="-7269854 7318375#5 -182019820#1 -182019820#0 7023439 61635505#1-AddedOnRampEdge 61635505#1 61635505#1-AddedOffRampEdge 80678446#0 7228431 106624247 118682221#0 118682221#1 118682201 118682393#0 118682393#1 202770988 -202770986 -202770801#2 202770802"/>
    </vehicle>
    <vehicle id="veh17" type="passenger" depart="9.07" departLane="best">
        <route edges="7152027#0 -7152027#0 7094519#5 80565098#0 -182019820#12 -182019820#11 -7196807 -265007775#7 7094168"/>
    </vehicle>
    <vehicle id="veh18" type="passenger" depart="9.60" departLane="best">
        <route edges="7199585 -7326169#0 -7085899#2 -7085899#1 -7233219#1 -7233219#0 80566602#3 80566602#4 80566602#5 80566602#6 80566602#7 106624248 118682222#0 118682222#1 106624225 106624243#0 106624243#2 106624243#3 106624243#4 7116191#0 7116191#1 7116191#2 7116191#3 7116191#4 357835212#0 357835212#1"/>
    </vehicle>
    <vehicle id="veh19" type="passenger" depart="10.14" departLane="best">
        <route edges="7042982 62207109#1 62207109#2 105141649#1 105141649#2 105141649#3 105141649#4 105141649#5 105141649#6 125135481#0 125135481#1 125135481#2 125135481#3 125135481#4 -125135481#4"/>
    </vehicle>
    <vehicle id="veh20" type="passenger" depart="10.67" departLane="best">
        <route edges="-7133071#0 -265007775#2 -265007775#1 7196933#2 7196933#3 7094519#0 7094519#1 7094519#2 7094519#3 7094519#4 7094519#5 80565098#0 80565098#1 80565098#2 -7080847#7 -7080847#6 -7198338#1 7175219#1 -7175219#1"/>
    </vehicle>
    <vehicle id="veh21" type="passenger" depart="11.20" departLane="best">
        <route edges="-202770801#3 -202770987 202770985#1 -125135481#7 -125135481#6 -125135481#5 -125135481#4 -125135481#3 -125135481#2 -125135481#1 -125135481#0 -105141649#6 -105141649#5 -105141649#4 -105141649#3 -105141649#2 -105141649#1 -62207109#2 -62207109#1 -62207109#0 -80565078 -80565098#4 -80565098#3 -80565098#2 -80565098#1 -80565098#0 -7094519#5 -7094519#4 -7094519#3 -7117437#4 -7117437#3 -7117920"/>
    </vehicle>
    <vehicle id="veh22" type="passenger" depart="11.74" departLane="best">
        <route edges="-357842386 357835216#1 7116191#7 7249756#1 7249756#2 7249756#3 7249756#4 7249756#5 7249756#6 7249756#7 118651687#0 118651687#1 118651687#2 118651690#0 118651690#1 -7311245#1 182019820#8 182019820#9 182019820#10 182019820#11 7245627#0 -7162977"/>
    </vehicle>
    <vehicle id="veh23" type="passenger" depart="12.27" departLane="best">
        <route edges="202770799#1 202770800#1 202770843 202770801#1 202770801#2 -202770987 202770985#1 -125135481#7 -125135481#6 -125135481#5 -125135481#4 -125135481#3 -125135481#2 -125135481#1 -125135481#0 -105141649#6 -105141649#5 -105141649#4 -105141649#3 -105141649#2 -105141649#1 -62207109#2 -62207109#1 -62207109#0 -80565078 -80565098#4 -80565098#3 -80565098#2 -80565098#1 -80565098#0 -7094519#5 -7094519#4 -7094519#3 -7117437#4 -7117437#3 -7117437#2 -7245637#1 -7278066#0"/>
    </vehicle>
    <vehicle id="veh24" type="passenger" depart="12.80" departLane="best">
        <route edges="-7264391 182019820#3 182019820#4 182019820#5 182019820#6 182019820#7 7311245#1 118651686#0 118651686#1 -118651687#2 -118651687#1 -118651687#0 -7249756#7 -7249756#6 -7249756#5 -7249756#4 -7249756#3 -7249756#2 -7249756#1 -7249756#0 -7116191#6 -7116191#5 -7116191#4 -7116191#3 -7116191#2 -7116191#1 -7116191#0"/>
    </vehicle>
    <vehicle id="veh25" type="passenger" depart="13.34" departLane="best">
        <route edges="-7168454 -80565076#0 105141649#1 105141649#2 105141649#3 105141649#4 105141649#5 105141649#6 125135481#0 125135481#1 125135481#2 125135481#3 7328604#0 7328604#1 7328604#2"/>
    </vehicle>
    <vehicle id="veh26" type="passenger" depart="13.87" departLane="best">
        <route edges="202770805#2 125367087 -202770987 202770985#1 125185719#0 125185719#1 125185719#2 -7085899#9 -7085899#8 -7085899#7 -7085899#6 -7085899#5 -7085899#4 -7085899#3 -7085899#2 7085899#2"/>
    </vehicle>
    <vehicle id="veh27" type="passenger" depart="14.40" departLane="best">
        <route edges="-7105326#1 -182019820#6 -182019820#5 -182019820#4 -182019820#3 -182019820#2 -182019820#1 -182019820#0 7023439 61635505#1-AddedOnRampEdge 61635505#1 61635505#1-AddedOffRampEdge 80678446#0 7228431 106624247 -80566602#7 -80566602#6 -80566602#5 7150791#0 7150791#1 7150791#2"/>
    </vehicle>
    <vehicle id="veh28" type="passenger" depart="14.94" departLane="best">
        <route edges="-7102287 -80565710#0 -105141649#2 -105141649#1 -62207109#2 -62207109#1 -62207109#0 -80565078 -80565098#4 -80565098#3 -80565098#2 -80565098#1 -182019820#12 -182019820#11 -182019820#10 -182019820#9 -182019820#8 -182019820#7 -182019820#6 -182019820#5 -182019820#4 -182019820#3 -182019820#2 -7318375#5 7150260#0 -7297392"/>
    </vehicle>
    <vehicle id="veh30" type="passenger" depart="16.00" departLane="best">
        <route edges="119568930#0 80565078 7150721 62207109#1 62207109#2 105141649#1 105141649#2 105141649#3 105141649#4 105141649#5 105141649#6 125135481#0 125135481#1 125135481#2 125135481#3 125135481#4 125135481#5 125135481#6 125135481#7 125185719#0 125185719#1 125185719#2 -7085899#9 -7085899#8 -7085899#7 -7085899#6 7116833"/>
    </vehicle>
    <vehicle id="veh31" type="passenger" depart="16.54" departLane="best">
        <route edges="7168458 -80565076#0 -62207109#2 -62207109#1 106466827 123541498#1-AddedOnRampEdge 123541498#1 123541498#1-AddedOffRampEdge 123541498#2 123541495#0 123541495#0-AddedOffRampEdge 7026422 106624247 -80566602#7 -7174776 -7145032 7197500"/>
    </vehicle>
    <vehicle id="veh32" type="passenger" depart="17.07" departLane="best">
        <route edges="-7133071#1 -7112459 7196933#3 7094519#0 7094519#1 7094519#2 7094519#3 7094519#4 7094519#5 80565098#0 80565098#1 80565098#2 80565098#3 80565098#4 119568930#2 62207073#0 62207073#1 62207073#2 118682210#0 -118682210#0"/>
    </vehicle>
    <vehicle id="veh33" type="passenger" depart="17.61" departLane="best">
        <route edges="-7231804 265007775#5 265007775#6 265007775#7 265007775#8 7307401#0 -182019820#9 -182019820#8 -182019820#7 -182019820#6 -182019820#5 -182019820#4 -182019820#3 -182019820#2 -7318375#5 7150260#0 -7150260#0"/>
    </vehicle>
    <vehicle id="veh34" type="passenger" depart="18.14" departLane="best">
        <route edges="-7117915#5 -7117915#4 -7117915#3 -7152027#0 7094519#5 80565098#0 -182019820#12 -182019820#11 -182019820#10 -182019820#9 -182019820#8 -182019820#7 -182019820#6 7337276#2"/>
    </vehicle>
    <vehicle id="veh35" type="passenger" depart="18.67" departLane="best">
        <route edges="7225572 7112498#2 7112498#3 7112498#4 7112498#5 7094519#4 7094519#5 80565098#0 80565098#1 80565098#2 80565098#3 80565098#4 80565078 7150721 62207109#1 62207109#2 105141649#1 105141649#2 80565710#0 80565710#1 -7205529"/>
    </vehicle>
    <vehicle id="veh36" type="passenger" depart="19.21" departLane="best">
        <route edges="265007775#0 265007775#1 265007775#2 265007775#4 265007775#5 265007775#6 265007775#7 265007775#8 7307401#0 -182019820#9 -182019820#8 -182019820#7 -182019820#6 -7337276#1 -7337276#0 7318375#3 -7318375#3"/>
    </vehicle>
    <vehicle id="veh37" type="passenger" depart="19.74" departLane="best">
        <route edges="7276267#0 -7276267#0 105141649#4 105141649#5 105141649#6 -118682210#2 -118682210#1 -118682210#0 -185937919#1 -185937919#0 -118584136#1 -118584136#0 -7245118#1 7033052#0 106624231#0 106624231#1"/>
    </vehicle>
    <vehicle id="veh38" type="passenger" depart="20.27" departLane="best">
        <route edges="-7163235 7099294#1 7198338#1 -7080847#5 -7080847#4 -7080847#3 -7080847#2 -7080847#1 -7080847#0 7245118#0 7245118#1 118584136#0 7040996 123541495#0 123541495#0-AddedOffRampEdge 7026422 106624247 -80566602#7 -80566602#6 -80566602#5 7150791#0 7150791#1 -7131987#4 -7131987#3 -7131987#2 -7131987#1 -7131987#0"/>
    </vehicle>
    <vehicle id="veh39" type="passenger" depart="20.81" departLane="best">
        <route edges="123541495#0-AddedOffRampEdge 7026422 106624247 -80566602#7 -7174776 -7144502"/>
    </vehicle>
    <vehicle id="veh40" type="passenger" depart="21.34" departLane="best">
        <route edges="125367062 -125367076#3 -125367076#2 -125367076#1 -125367076#0 125367089 -125185719#3 -125185719#2 -125185719#1 -125185719#0 -125135481#7 7294206"/>
    </vehicle>
    <vehicle id="veh41" type="passenger" depart="21.87" departLane="best">
        <route edges="-7279670 -7205527#0 -80565076#1 -80565076#0 -62207109#2 -62207109#1 -62207109#0 -80565078 -80565098#4 7117365#3 -7117365#3"/>
    </vehicle>
    <vehicle id="veh42" type="passenger" depart="22.41" departLane="best">
        <route edges="80678446#1 62206969#1-AddedOnRampEdge 62206969#1 62206969#2 123541512#0 123541512#1-AddedOnRampEdge 123541512#1 123541512#1-AddedOffRampEdge 123541512#2 123541512#3-AddedOnRampEdge"/>
    </vehicle>
    <vehicle id="veh43" type="passenger" depart="22.94" departLane="best">
        <route edges="-265007775#7 265007775#7 7196807 182019820#11 182019820#12 80565098#1 80565098#2 80565098#3 80565098#4 80565078 7150721 62207109#1 62207109#2 105141649#1 105141649#2 105141649#3 105141649#4 105141649#5 105141649#6 125135481#0 125135481#1 125135481#2 125135481#3 125135481#4 125135481#5 125135481#6 -125135481#6"/>
    </vehicle>
    <vehicle id="veh44" type="passenger" depart="23.47" departLane="best">
        <route edges="-7080847#0 7080847#0 7080847#1 7080847#2 7080847#3 7080847#4 7080847#5 7080847#6 7080847#7 -80565098#2 -80565098#1 -80565098#0 -7094519#5 -7094519#4 -7094519#3 7094519#3"/>
    </vehicle>
    <vehicle id="veh45" type="passenger" depart="24.01" departLane="best">
        <route edges="7123182#0 -7123182#0 -80565714#1 -80565714#0 -62207073#0 -62207120 -80565098#4"/>
    </vehicle>
    <vehicle id="veh46" type="passenger" depart="24.54" departLane="best">
        <route edges="-182019820#11 182019820#11 182019820#12 -80565098#0 -7094519#5 7152027#0 7117915#3 7117915#4 -7142669#1 -7302817"/>
    </vehicle>
    <vehicle id="veh47" type="passenger" depart="25.07" departLane="best">
        <route edges="80673416#0 -80673416#0 80668033#0 80668033#1 80668033#2 -7150791#3 -7150791#2 -7150791#1 7272035 -142845945#1 142845945#1"/>
    </vehicle>
    <vehicle id="veh48" type="passenger" depart="25.61" departLane="best">
        <route edges="80565076#1 -80565076#1 -80565076#0 -62207109#2 -62207109#1 -62207109#0 -80565078 -80565098#4 -80565098#3 -80565098#2 -80565098#1 -182019820#12 -182019820#11 -182019820#10 -182019820#9 -182019820#8 -182019820#7 -182019820#6 -182019820#5 -182019820#4 -182019820#3 7264391"/>
    </vehicle>
    <vehicle id="veh49" type="passenger" depart="26.14" departLane="best">
        <route edges="-106624234#0 -106624244 106624231#0 106624231#1 -7245118#0 7080847#0 7080847#1 7080847#2 7080847#3 7080847#4 7080847#5 7080847#6 7080847#7 -80565098#2 7148398#0 7148398#1"/>
    </vehicle>
    <vehicle id="veh50" type="passenger" depart="26.67" departLane="best">
        <route edges="366194779 -118682393#0 -80565725#1 -80565725#0 -62207073#2 -62207073#1 -62207073#0 -62207120 -80565098#4 -80565098#3 7080847#8 7080847#9 7080847#10 182019820#14"/>
    </vehicle>
    <vehicle id="veh52" type="passenger" depart="27.74" departLane="best">
        <route edges="-7080847#2 -7080847#1 -7080847#0 7245118#0 7245118#1 118584136#0 7040996 123541495#0 123541495#0-AddedOffRampEdge 7026422 106624247 -80566602#7 -80566602#6 -80566602#5 -80566602#4 -80566602#3 -80566602#2 -80566602#1 -80566602#0"/>
    </vehicle>
    <vehicle id="veh53" type="passenger" depart="28.27" departLane="best">
        <route edges="-7328604#2 -7328604#1 -7328604#0 125135481#4 125135481#5 125135481#6 125135481#7 125185719#0 125185719#1 125185719#2 -7085899#9 -7085899#8 -7085899#7 -7085899#6 -7085899#5 -7285042#3 7341683"/>
    </vehicle>
    <vehicle id="veh54" type="passenger" depart="28.81" departLane="best">
        <route edges="7221323 7326169#2 -7233219#5 -7233219#4 -7233219#3 -7233219#2 -7233219#1 -7233219#0 80566602#3 80566602#4 80566602#5 80566602#6 -7174776 -7145032 -7145017"/>
    </vehicle>
    <vehicle id="veh55" type="passenger" depart="29.34" departLane="best">
        <route edges="-80673416#1 -80673416#0 80668033#0 80668033#1 80668033#2 80668033#3 80566602#1 80566602#2 7233219#0 7233219#1 7085899#1 7085899#2 7085899#3 7085899#4 7085899#5 7085899#6 -7085899#6"/>
    </vehicle>
    <vehicle id="veh56" type="passenger" depart="29.88" departLane="best">
        <route edges="7272035 -7272035 -7150791#0 80566602#5 80566602#6 80566602#7 106624248 118682222#0 118682222#1 106624225 106624243#0 106624243#2 106624243#3 106624243#4 7116191#0 7116191#1 7116191#2 7116191#3 7116191#4 7116191#5 7116191#6 7116191#7 7249756#1 7249756#2 7249756#3 7249756#4 7249756#5 7249756#6 7249756#7 118651687#0 118651687#1 118651687#2 118651690#0 118651690#1 -7311245#1 -182019820#7 -182019820#6 -182019820#5 -182019820#4 -182019820#3 -182019820#2 -7318375#5 7269854"/>
    </vehicle>
    <vehicle id="veh58" type="passenger" depart="30.94" departLane="best">
        <route edges="125367105 -125185719#1 -125185719#0 -125135481#7 -125135481#6 -125135481#5 -125135481#4 -125135481#3 -125135481#2 -125135481#1 -125135481#0 -105141649#6 -105141649#5 -105141649#4 -105141649#3 -105141649#2 -105141649#1 -62207109#2 -62207109#1"/>
    </vehicle>
    <vehicle id="veh59" type="passenger" depart="31.48" departLane="best">
        <route edges="7112498#2 7112498#3 7112498#4 7112498#5 7094519#4 7094519#5 80565098#0 182019820#13 182019820#14"/>
    </vehicle>
    <vehicle id="veh60" type="passenger" depart="32.01" departLane="best">
        <route edges="7117437#0 7117437#1 7117437#2 7117437#3 7117437#4 7094519#3 7094519#4 7094519#5 80565098#0 80565098#1 80565098#2 -7080847#7 -7080847#6 -7080847#5 -7080847#4 -7080847#3 -7080847#2 -7080847#1 -7080847#0 7245118#0 7245118#1 118584136#0 7040996 123541495#0 123541495#0-AddedOffRampEdge 7026422 106624247 -80566602#7 -80566602#6 -80566602#5 7150791#0 7150791#1 7150791#2 142846204"/>
    </vehicle>
    <vehicle id="veh61" type="passenger" depart="32.54" departLane="best">
        <route edges="-105141649#1 -62207109#2 -62207109#1 -62207109#0 -80565078 -80565098#4 -80565098#3 -80565098#2 -80565098#1 -80565098#0 -7094519#5 -7094519#4 -7112498#5 -7112498#4 -7112498#3 -7112498#2 -7225572"/>
    </vehicle>
    <vehicle id="veh62" type="passenger" depart="33.08" departLane="best">
        <route edges="-118584064#1 -118584064#0 7249756#7 -106624223#4 -106624223#3 106624232#0 106624232#1 106624232#2 106624232#3 106624232#4 7327325#6"/>
    </vehicle>
    <vehicle id="veh63" type="passenger" depart="33.61" departLane="best">
        <route edges="7225572 7112498#2 7112498#3 7112498#4 7112498#5 7094519#4 7094519#5 80565098#0 -182019820#12 7245627#0 7245627#1"/>
    </vehicle>
    <vehicle id="veh64" type="passenger" depart="34.14" departLane="best">
        <route edges="-7215344 125135481#5 125135481#6 125135481#7 125185719#0 125185719#1 125185719#2 125185719#3 125367066 125367076#0 125367076#1 125367076#2 -125367072"/>
    </vehicle>
    <vehicle id="veh65" type="passenger" depart="34.68" departLane="best">
        <route edges="7225572 7112498#2 7112498#3 7112498#4 7112498#5 7094519#4 7094519#5 80565098#0 80565098#1 80565098#2 80565098#3 7117365#3 7339390#0 7339390#1"/>
    </vehicle>
    <vehicle id="veh66" type="passenger" depart="35.21" departLane="best">
        <route edges="-202771058#0 -202771057#0 202771059 -202770801#3 -202770987 202770985#1 -125135481#7 -125135481#6 -125135481#5 -125135481#4 -125135481#3 -125135481#2 -125135481#1 -125135481#0 118682210#3"/>
    </vehicle>
    <vehicle id="veh67" type="passenger" depart="35.74" departLane="best">
        <route edges="-182019820#2 -182019820#1 -182019820#0 7023439 61635505#1-AddedOnRampEdge 61635505#1 61635505#1-AddedOffRampEdge 80678446#0 7228431 106624247 -80566602#7 -80566602#6 -80566602#5 -80566602#4 -80566602#3 7233219#0 7233219#1 7233219#2 7174292"/>
    </vehicle>
    <vehicle id="veh68" type="passenger" depart="36.28" departLane="best">
        <route edges="7116191#1 -7116191#1 -7116191#0 -106624243#4 -106624243#3 -106624243#2 -106624243#0 -106624234#1 -106624234#0 -106624244 106624231#0 106624231#1 7245118#1 118584136#0 118584136#1 185937919#0 185937919#1 118682210#0 118682210#1 -7123182#5 -7123182#4 -346925177"/>
    </vehicle>
    <vehicle id="veh69" type="passenger" depart="36.81" departLane="best">
        <route edges="-80565098#3 80565098#3 80565098#4 80565078 7150721 62207109#1 62207109#2 105141649#1 105141649#2 105141649#3 105141649#4 105141649#5 105141649#6 125135481#0 125135481#1 125135481#2 125135481#3 125135481#4 125135481#5 125135481#6 125135481#7 202770988 -202770986 -202770801#2 202770801#2"/>
    </vehicle>
    <vehicle id="veh70" type="passenger" depart="37.34" departLane="best">
        <route edges="-7166974#1 7117365#1 7117365#2 80565098#4 80565078 7150721 62207109#1 62207109#2 105141649#1 105141649#2 105141649#3 105141649#4 7276260#0 7276260#1"/>
    </vehicle>
    <vehicle id="veh71" type="passenger" depart="37.88" departLane="best">
        <route edges="-7311009#3 7131987#2 7131987#3 7131987#4 -7150791#1 -7150791#0 80566602#5 80566602#6 80566602#7 106624248 118682222#0 118682222#1 106624225 106624243#0 106624243#2 106624243#3 106624243#4 7116191#0 7116191#1 7116191#2 7116191#3 -7116191#3"/>
    </vehicle>
    <vehicle id="veh72" type="passenger" depart="38.41" departLane="best">
        <route edges="118584064#1 -118584064#1 -118584064#0 -7249756#6 -7249756#5 -7249756#4 -7249756#3 -7249756#2 -7249756#1 -7249756#0 -7116191#6 -7116191#5 -7116191#4 -7116191#3 -7116191#2 -7116191#1 -7116191#0 -106624243#4 -106624243#3 -106624243#2 -106624243#0 -106624234#1 -106624250 -106624241 -118682222#1 -118682222#0 -106624248 -80566602#7 -80566602#6 -80566602#5 7150791#0 7150791#1 7150791#2 7150791#3"/>
    </vehicle>
    <vehicle id="veh73" type="passenger" depart="38.94" departLane="best">
        <route edges="-7117365#3 80565098#4 80565078 7150721 106466827 123541498#1-AddedOnRampEdge 123541498#1 123541498#1-AddedOffRampEdge 123541498#2 123541495#0 123541495#0-AddedOffRampEdge 7026422 106624247 -80566602#7 -80566602#6 -80566602#5 7150791#0 7150791#1 7150791#2 7150791#3 -80668033#2 -80668033#1 -7311009#0 -7234624#0 7204030#1 -7204030#1"/>
    </vehicle>
    <vehicle id="veh74" type="passenger" depart="39.48" departLane="best">
        <route edges="-7326169#3 -7326169#2 -7326169#1 -7326169#0 7085899#3 7085899#4 7085899#5 7085899#6 7085899#7 7085899#8 7085899#9 125185719#3"/>
    </vehicle>
    <vehicle id="veh75" type="passenger" depart="40.01" departLane="best">
        <route edges="-7245118#1 7245118#1 118584136#0 7040996 123541495#0 123541495#0-AddedOffRampEdge 7026422 -7228431 80678446#1 62206969#1-AddedOnRampEdge"/>
    </vehicle>
    <vehicle id="veh76" type="passenger" depart="40.55" departLane="best">
        <route edges="-7142669#1 7142669#1 -7117915#4 -7117915#3 -7152027#0 7094519#5 80565098#0 80565098#1 80565098#2 -7080847#7 -7080847#6 -7080847#5 -7080847#4 -7080847#3 -7080847#2 80565722#0 80565722#1 -7117365#5 -7117365#4"/>
    </vehicle>
    <vehicle id="veh77" type="passenger" depart="41.08" departLane="best">
        <route edges="-182019820#5 -182019820#4 -182019820#3 -182019820#2 -182019820#1 -182019820#0 7023439 61635505#1-AddedOnRampEdge 61635505#1 61635505#1-AddedOffRampEdge 80678446#0 7228431 106624247 -80566602#7 -80566602#6 -80566602#5 7150791#0 7150791#1 7150791#2 7150791#3 -80668033#2 -80668033#1 -80668033#0 80673416#0 7095958"/>
    </vehicle>
    <vehicle id="veh78" type="passenger" depart="41.61" departLane="best">
        <route edges="-7133071#1 -7133071#0 265007775#4 265007775#5 265007775#6 265007775#7 265007775#8 7307401#0 7307401#1"/>
    </vehicle>
    <vehicle id="veh79" type="passenger" depart="42.15" departLane="best">
        <route edges="7199585 -7326169#0 7085899#3 7085899#4 7085899#5 7085899#6 7085899#7 7085899#8 7085899#9 125185719#3 125367066 125367076#0 125367076#1 -125367091"/>
    </vehicle>
    <vehicle id="veh80" type="passenger" depart="42.68" departLane="best">
        <route edges="-7150260#1 -7150260#0 7318375#5 182019820#2 182019820#3 182019820#4 182019820#5 182019820#6 182019820#7 182019820#8 182019820#9 -7307401#0 -265007775#8 -265007775#7 -265007775#6 -265007775#5 -265007775#4 -265007775#2 -265007775#1 7196933#2 7196933#3 7094519#0 7094519#1 -7245637#3 -7245637#2 -7117437#1 7084871#0 7108519"/>
    </vehicle>
    <vehicle id="veh81" type="passenger" depart="43.21" departLane="best">
        <route edges="7302817 7142669#1 -7117915#4 -7117915#3 -7152027#0 7094519#5 80565098#0 80565098#1 80565098#2 -7080847#7 -7080847#6 -7080847#5 -7080847#4 -7080847#3 -7080847#2 -7080847#1 -7080847#0 7245118#0 7245118#1 35147687"/>
    </vehicle>
    <vehicle id="veh82" type="passenger" depart="43.75" departLane="best">
        <route edges="-80565078 80565078 7150721 62207109#1 62207109#2 105141649#1 105141649#2 80565710#0 80565710#1 -7205529 7200086#1"/>
    </vehicle>
    <vehicle id="veh84" type="passenger" depart="44.81" departLane="best">
        <route edges="-357835212#0 -7116191#4 -7116191#3 -7116191#2 -7116191#1 -7116191#0 -106624243#4 -106624243#3 -106624243#2 -106624243#0 -106624234#1 -106624250 -106624241 -118682222#1 -118682222#0 -106624248 -80566602#7 -80566602#6 -80566602#5 -80566602#4 -80566602#3 -80566602#2 -80566602#1 80566601#0 -80566601#0"/>
    </vehicle>
    <vehicle id="veh85" type="passenger" depart="45.35" departLane="best">
        <route edges="-7311009#4 7259009#0 7259009#1 7259009#2 80566602#6 80566602#7 106624248 118682222#0 118682222#1 106624225 106624243#0 106624243#2 106624243#3"/>
    </vehicle>
    <vehicle id="veh86" type="passenger" depart="45.88" departLane="best">
        <route edges="7085899#4 7085899#5 7085899#6 7085899#7 7085899#8 7085899#9 -125185719#2 -125185719#1 -125185719#0 -125135481#7 -125135481#6 -125135481#5 -125135481#4 -125135481#3 -125135481#2 -125135481#1 -125135481#0 -105141649#6 -105141649#5 -105141649#4 -105141649#3 -105141649#2 -105141649#1 -62207109#2 -62207109#1 -62207109#0 -80565078 -80565098#4 -80565098#3 -80565098#2 -80565098#1 -80565098#0 -7094519#5 -7094519#4 -7094519#3 -7094519#2 -7094519#1 -7094519#0 -7196933#3 7112459"/>
    </vehicle>
    <vehicle id="veh87" type="passenger" depart="46.41" departLane="best">
        <route edges="80565725#1 -118682201 106624240 106624248 118682222#0 118682222#1 106624225 106624243#0 106624243#2 106624243#3 106624243#4 7116191#0 7116191#1 7116191#2 7116191#3 7116191#4 7116191#5 7116191#6 7116191#7 7249756#1 7249756#2 7249756#3 7249756#4 7249756#5 7249756#6 7249756#7 118651687#0 118651687#1 118651687#2 118651690#0 118651690#1 -7311245#1 182019820#8 182019820#9 -182019820#9"/>
    </vehicle>
    <vehicle id="veh88" type="passenger" depart="46.95" departLane="best">
        <route edges="-7281810 -7328604#1 -7328604#0 -125135481#3 -125135481#2 -125135481#1 -125135481#0 -118682210#2 -118682210#1 -118682210#0 -185937919#1 -185937919#0 -118584136#1 -118584136#0 -7245118#1"/>
    </vehicle>
    <vehicle id="veh89" type="passenger" depart="47.48" departLane="best">
        <route edges="7199585 -7326169#0 -7085899#2 -7085899#1 -7233219#1 -7233219#0 80566602#3 80566602#4 7150791#0 7150791#1 -7131987#4 -7131987#3 -7131987#2 -7131987#1 -7131987#0"/>
    </vehicle>
    <vehicle id="veh90" type="passenger" depart="48.01" departLane="best">
        <route edges="-7112498#4 7112498#4 7112498#5 7094519#4 7094519#5 80565098#0 80565098#1 80565098#2 80565098#3 80565098#4 80565078 7150721 106466827"/>
    </vehicle>
    <vehicle id="veh91" type="passenger" depart="48.55" departLane="best">
        <route edges="-7311009#1 80668033#1 80668033#2 -7150791#3 -7150791#2 -7150791#1 -7150791#0 80566602#5 80566602#6 80566602#7 106624248 118682222#0 118682222#1 106624241 106624250 -106624234#0 -106624244 106624231#0 106624231#1 -7245118#0 7080847#0 7080847#1 7080847#2 7080847#3 7080847#4 7080847#5 7080847#6 7080847#7 -80565098#2 -80565098#1 -182019820#12 7245627#0 -7162977"/>
    </vehicle>
    <vehicle id="veh92" type="passenger" depart="49.08" departLane="best">