<?xml version="1.0" encoding="UTF-8"?>

<!-- generated on Sun Dec 11 16:27:28 2016 by SUMO polyconvert Version 0.28.0
<?xml version="1.0" encoding="UTF-8"?>

<configuration xmlns:xsi="http://www.w3.org/2001/XMLSchema-instance" xsi:noNamespaceSchemaLocation="http://sumo.dlr.de/xsd/polyconvertConfiguration.xsd">

    <input>
        <net-file value="/home/chl/cs240/2016-12-11-16-27-22/osm.net.xml"/>
        <osm-files value="osm_bbox.osm.xml"/>
        <osm.keep-full-type value="true"/>
        <type-file value="/usr/share/sumo/tools/../data/typemap/osmPolyconvert.typ.xml"/>
    </input>

    <output>
        <output-file value="/home/chl/cs240/2016-12-11-16-27-22/osm.poly.xml"/>
    </output>

    <processing>
        <poi-layer-offset value="5"/>
    </processing>

    <report>
        <verbose value="true"/>
    </report>

</configuration>
-->

<additional xmlns:xsi="http://www.w3.org/2001/XMLSchema-instance" xsi:noNamespaceSchemaLocation="http://sumo.dlr.de/xsd/additional_file.xsd">
    <location netOffset="-465919.68,-3754526.83" convBoundary="-14317.50,-6461.07,8743.81,9825.81" origBoundary="-117.523761,33.872421,-117.274172,34.019269" projParameter="+proj=utm +zone=11 +ellps=WGS84 +datum=WGS84 +units=m +no_defs"/>

    <poly id="104223955" type="landuse.industrial" color="209,209,204" fill="1" layer="-3.00" shape="3032.82,4751.48 3095.96,4914.68 3175.84,4835.15 3256.21,4758.15 3253.07,4749.80 3032.82,4751.48"/>
    <poly id="118584049" type="amenity.parking" color="184,184,179" fill="1" layer="-1.00" shape="3877.62,4176.70 3886.27,4176.76 3886.46,4181.06 3893.30,4185.43 3893.31,4189.13 3897.28,4189.20 3906.81,4189.34 3907.01,4172.30 3905.89,4172.39 3905.86,4163.95 3910.36,4164.03 3910.25,4156.02 3877.12,4156.04 3877.62,4176.70"/>
    <poly id="118584052" type="amenity.parking" color="184,184,179" fill="1" layer="-1.00" shape="4065.90,4631.50 4077.38,4632.87 4085.40,4632.90 4102.07,4632.96 4116.65,4633.01 4116.71,4623.97 4111.05,4620.56 4111.28,4583.31 4088.34,4583.47 4080.92,4582.79 4068.13,4582.91 4066.01,4582.92 4065.90,4631.50"/>
    <poly id="118584053" type="amenity.parking" color="184,184,179" fill="1" layer="-1.00" shape="3998.07,4230.40 4010.49,4229.77 4009.10,4259.41 4008.21,4266.17 4009.36,4271.29 4011.81,4274.74 4033.22,4287.59 4044.22,4295.52 4047.22,4298.83 4048.54,4302.47 4048.73,4306.33 4048.21,4312.55 4045.66,4319.39 4043.41,4324.79 4043.92,4327.32 4046.32,4330.36 4045.03,4333.25 4041.09,4332.18 4035.61,4328.86 4033.38,4325.14 4031.25,4321.59 4034.77,4319.02 4034.71,4317.62 4030.33,4317.37 4030.88,4307.07 4024.91,4302.63 4006.67,4293.25 4007.30,4291.85 4002.05,4289.66 4005.15,4283.68 3996.52,4283.61 3998.07,4230.40"/>
    <poly id="118584054" type="amenity.university" color="237,199,199" fill="1" layer="-1.00" shape="2866.29,4964.70 2866.30,4932.51 2866.29,4780.08 2880.24,4780.00 2999.89,4779.29 3005.09,4782.20 3009.93,4782.96 3013.56,4782.52 3016.67,4781.04 3020.11,4777.42 3022.93,4782.35 3046.90,4838.66 3074.58,4904.97 3073.11,4905.58 3076.58,4912.27 3084.25,4927.06 3048.47,4959.02 3037.24,4964.23 2961.41,4965.76 2959.17,4964.52 2890.58,4965.31 2866.29,4964.70"/>
    <poly id="118584059" type="amenity.parking" color="184,184,179" fill="1" layer="-1.00" shape="3260.17,4885.46 3377.08,4885.35 3379.49,4882.15 3397.91,4882.18 3398.11,4866.51 3391.86,4859.48 3391.92,4823.93 3397.00,4816.34 3396.97,4807.81 3393.85,4775.89 3393.09,4756.88 3393.05,4742.07 3393.36,4733.20 3395.34,4728.21 3418.01,4705.03 3451.02,4645.82 3450.91,4638.08 3448.29,4632.31 3446.24,4630.21 3353.32,4739.40 3311.38,4790.53 3253.26,4867.66 3253.32,4881.27 3260.07,4881.25 3260.17,4885.46"/>
    <poly id="118584061" type="amenity.parking" color="184,184,179" fill="1" layer="-1.00" shape="2985.53,4954.68 2983.10,4950.57 3018.27,4941.33 3034.67,4933.27 3045.28,4926.52 3044.24,4923.94 3054.86,4919.17 3060.46,4915.62 3066.84,4909.76 3067.53,4906.83 3041.20,4841.08 3046.90,4838.66 3074.58,4904.97 3073.11,4905.58 3076.58,4912.27 3064.90,4922.49 3058.86,4926.82 3046.18,4935.81 3020.18,4946.22 2985.53,4954.68"/>
    <poly id="118584063" type="leisure.nature_reserve" color="207,245,201" fill="1" layer="-2.00" shape="4594.89,4845.86 4616.20,4793.73 4663.99,4816.98 4704.42,4739.35 4695.79,4688.91 4699.75,4669.51 4720.20,4661.57 4738.79,4648.09 4764.71,4647.20 4767.67,4589.39 4757.12,4589.36 4770.49,4537.63 4770.23,4525.78 4809.89,4511.22 4808.06,4500.91 4806.61,4491.02 4777.64,4492.29 4769.49,4451.56 4766.28,4452.30 4774.69,4499.84 4735.39,4501.25 4728.59,4499.67 4728.85,4490.62 4697.74,4468.88 4695.34,3898.99 4574.54,3912.33 4473.73,3939.62 4407.08,4097.76 4508.39,4243.03 4482.81,4345.17 4451.97,4472.30 4466.08,4504.66 4468.56,4520.61 4440.79,4529.03 4391.63,4569.68 4386.92,4608.98 4421.05,4609.05 4420.77,4630.32 4511.49,4629.79 4511.08,4653.47 4556.54,4647.83 4554.97,4700.56 4550.75,4742.98 4545.30,4802.31 4565.19,4828.84 4594.89,4845.86"/>
    <poly id="118584063#1" type="tourism.attraction" color="207,245,201" fill="1" layer="-2.00" shape="4594.89,4845.86 4616.20,4793.73 4663.99,4816.98 4704.42,4739.35 4695.79,4688.91 4699.75,4669.51 4720.20,4661.57 4738.79,4648.09 4764.71,4647.20 4767.67,4589.39 4757.12,4589.36 4770.49,4537.63 4770.23,4525.78 4809.89,4511.22 4808.06,4500.91 4806.61,4491.02 4777.64,4492.29 4769.49,4451.56 4766.28,4452.30 4774.69,4499.84 4735.39,4501.25 4728.59,4499.67 4728.85,4490.62 4697.74,4468.88 4695.34,3898.99 4574.54,3912.33 4473.73,3939.62 4407.08,4097.76 4508.39,4243.03 4482.81,4345.17 4451.97,4472.30 4466.08,4504.66 4468.56,4520.61 4440.79,4529.03 4391.63,4569.68 4386.92,4608.98 4421.05,4609.05 4420.77,4630.32 4511.49,4629.79 4511.08,4653.47 4556.54,4647.83 4554.97,4700.56 4550.75,4742.98 4545.30,4802.31 4565.19,4828.84 4594.89,4845.86"/>
    <poly id="118584065" type="amenity.parking" color="184,184,179" fill="1" layer="-1.00" shape="2890.58,4965.31 2959.17,4964.52 2959.14,4958.64 2943.43,4958.97 2933.95,4956.11 2890.22,4955.84 2890.58,4965.31"/>
    <poly id="118584070" type="amenity.parking" color="184,184,179" fill="1" layer="-1.00" shape="3954.21,4172.44 3960.06,4171.49 3987.45,4167.06 3985.47,4152.05 3979.15,4125.38 3980.64,4120.02 3965.31,4098.99 3960.02,4102.17 3949.86,4099.65 3946.61,4103.62 3946.19,4109.24 3948.14,4114.50 3962.95,4132.37 3964.82,4139.84 3965.19,4146.78 3965.21,4154.15 3963.37,4156.53 3960.46,4157.16 3959.13,4155.85 3956.98,4143.90 3945.74,4135.24 3942.45,4128.58 3931.35,4131.86 3930.72,4129.49 3923.31,4131.89 3927.06,4142.68 3936.42,4140.04 3938.81,4147.07 3933.14,4151.45 3937.49,4158.41 3943.56,4161.89 3951.11,4161.43 3954.21,4172.44"/>
    <poly id="118584073" type="amenity.parking" color="184,184,179" fill="1" layer="-1.00" shape="2886.62,4932.45 2886.28,4828.21 2880.40,4828.23 2880.26,4788.19 2880.24,4780.00 2866.29,4780.08 2866.30,4932.51 2886.62,4932.45"/>
    <poly id="118584075" type="amenity.parking" color="184,184,179" fill="1" layer="-1.00" shape="4218.37,4778.53 4224.03,4782.34 4226.44,4782.72 4230.59,4783.39 4235.55,4780.77 4240.02,4780.44 4243.83,4783.62 4248.56,4783.50 4252.14,4783.42 4253.17,4782.47 4254.80,4782.29 4256.34,4782.55 4257.41,4779.09 4256.79,4725.65 4251.77,4722.57 4248.73,4720.24 4218.11,4737.87 4218.37,4778.53"/>
    <poly id="118584083" type="leisure.stadium" color="207,245,201" fill="1" layer="-2.00" shape="3558.12,5148.83 3590.55,5148.55 3589.75,5116.28 3591.91,5116.27 3591.68,5100.18 3587.62,5099.93 3587.33,5010.07 3508.21,5010.25 3509.61,5149.77 3558.12,5148.83"/>
    <poly id="118584083#1" type="sport.baseball" color="79,230,125" fill="1" layer="-2.00" shape="3558.12,5148.83 3590.55,5148.55 3589.75,5116.28 3591.91,5116.27 3591.68,5100.18 3587.62,5099.93 3587.33,5010.07 3508.21,5010.25 3509.61,5149.77 3558.12,5148.83"/>
    <poly id="118584099" type="amenity.parking" color="184,184,179" fill="1" layer="-1.00" shape="4202.42,4704.77 4216.27,4703.05 4236.37,4697.10 4243.68,4692.86 4252.74,4682.29 4201.73,4681.66 4201.86,4686.09 4202.42,4704.77"/>
    <poly id="118584102" type="amenity.parking" color="184,184,179" fill="1" layer="-1.00" shape="4168.34,5367.89 4252.93,5368.25 4345.86,5368.64 4407.06,5368.89 4407.07,5363.04 4415.03,5363.08 4415.22,5319.59 4415.25,5311.97 4352.45,5311.72 4352.42,5317.39 4245.65,5316.94 4245.67,5311.18 4168.58,5310.85 4168.54,5319.55 4168.38,5358.53 4168.34,5367.89"/>
    <poly id="118584105" type="amenity.parking" color="184,184,179" fill="1" layer="-1.00" shape="4124.39,4482.65 4124.36,4475.54 4160.28,4475.25 4161.63,4482.19 4158.80,4482.22 4124.39,4482.65"/>
    <poly id="118584114" type="amenity.parking" color="184,184,179" fill="1" layer="-1.00" shape="3505.71,5318.83 3580.75,5318.20 3580.24,5189.63 3580.11,5156.37 3509.39,5157.26 3505.13,5157.32 3505.71,5318.83"/>
    <poly id="118584115" type="amenity.parking" color="184,184,179" fill="1" layer="-1.00" shape="3695.97,4404.21 3777.22,4403.40 3777.19,4361.81 3821.02,4361.39 3887.12,4361.12 3886.84,4287.56 3874.64,4287.76 3865.67,4213.08 3856.76,4211.30 3848.89,4210.80 3837.30,4213.17 3831.34,4215.51 3824.53,4219.66 3817.80,4225.02 3809.27,4235.38 3768.69,4285.70 3745.42,4314.56 3712.54,4355.34 3708.15,4361.29 3703.94,4369.48 3699.56,4378.10 3698.35,4383.15 3697.17,4388.10 3695.97,4404.21"/>
    <poly id="118584116" type="amenity.parking" color="184,184,179" fill="1" layer="-1.00" shape="3031.55,4855.57 3031.62,4848.61 3035.31,4845.71 3041.20,4841.08 3046.90,4838.66 3022.93,4782.35 3019.39,4782.89 3008.16,4788.00 2995.62,4788.04 2999.15,4782.52 2946.23,4782.53 2946.40,4797.69 2946.98,4851.13 2944.90,4851.30 2945.05,4895.80 2961.16,4894.76 2977.38,4893.72 2977.02,4862.56 2980.08,4862.49 2979.93,4855.92 3031.55,4855.57"/>
    <poly id="118584123" type="building.yes" color="255,230,230" fill="1" layer="-1.00" shape="2982.89,4933.83 3025.60,4915.94 3018.10,4898.17 3000.60,4905.49 2994.71,4891.55 2970.02,4901.89 2977.28,4919.10 2974.28,4920.35 2976.57,4925.77 2978.07,4925.15 2977.71,4924.27 2978.68,4923.86 2982.89,4933.83"/>
    <poly id="118584125" type="amenity.parking" color="184,184,179" fill="1" layer="-1.00" shape="4188.79,4471.01 4192.38,4465.80 4297.92,4465.19 4298.47,4458.65 4288.93,4457.91 4289.95,4445.47 4306.47,4446.83 4304.98,4466.50 4308.94,4488.70 4310.74,4498.23 4191.58,4498.41 4193.52,4494.39 4193.49,4489.83 4193.45,4485.22 4191.14,4482.17 4192.90,4480.72 4189.86,4473.55 4188.79,4471.01"/>
    <poly id="118584131" type="amenity.parking" color="184,184,179" fill="1" layer="-1.00" shape="3655.71,4389.33 3661.06,4394.00 3668.60,4400.59 3651.38,4465.16 3648.61,4463.65 3645.63,4462.97 3641.21,4463.75 3635.82,4467.21 3605.17,4444.24 3613.32,4441.39 3609.16,4436.79 3655.71,4389.33"/>
    <poly id="118584143" type="building.yes" color="255,230,230" fill="1" layer="-1.00" shape="2946.30,4948.65 2957.32,4948.61 2956.97,4921.68 2944.61,4921.63 2944.61,4932.56 2948.15,4932.51 2948.18,4940.97 2946.23,4940.98 2946.30,4948.65"/>
    <poly id="118584149" type="building.yes" color="255,230,230" fill="1" layer="-1.00" shape="2980.19,4876.64 3020.24,4876.17 3035.30,4912.34 3053.67,4904.63 3033.24,4855.61 3031.55,4855.57 2979.93,4855.92 2980.08,4862.49 2980.19,4876.64"/>
    <poly id="118584151" type="amenity.parking" color="184,184,179" fill="1" layer="-1.00" shape="2932.63,4828.04 2932.52,4797.75 2932.49,4788.01 2880.26,4788.19 2880.28,4794.34 2880.40,4828.23 2886.28,4828.21 2907.30,4828.14 2932.63,4828.04"/>
    <poly id="118584151#1" type="building.yes" color="255,230,230" fill="1" layer="-1.00" shape="2932.63,4828.04 2932.52,4797.75 2932.49,4788.01 2880.26,4788.19 2880.28,4794.34 2880.40,4828.23 2886.28,4828.21 2907.30,4828.14 2932.63,4828.04"/>
    <poly id="118651688" type="amenity.parking" color="184,184,179" fill="1" layer="-1.00" shape="4344.47,4992.78 4367.37,4993.32 4371.33,4987.63 4378.30,4983.51 4378.21,4946.75 4373.48,4937.67 4338.46,4937.69 4330.39,4954.34 4332.63,4955.63 4330.09,4960.61 4339.87,4969.84 4348.56,4983.67 4344.47,4992.78"/>
    <poly id="118651694" type="amenity.parking" color="184,184,179" fill="1" layer="-1.00" shape="4326.55,4867.45 4326.53,4856.74 4326.48,4814.93 4326.55,4811.72 4401.09,4810.71 4413.89,4812.36 4425.90,4817.45 4436.23,4823.82 4467.58,4849.16 4479.26,4853.06 4496.13,4858.69 4575.44,4858.37 4589.18,4857.09 4604.49,4854.32 4613.87,4846.71 4624.52,4845.36 4695.87,4845.27 4695.97,4949.39 4594.96,4948.95 4577.92,4947.15 4555.41,4942.13 4538.27,4936.30 4518.03,4927.13 4500.98,4918.23 4489.84,4913.61 4476.76,4909.38 4462.99,4904.91 4448.77,4901.97 4432.35,4899.29 4414.52,4898.65 4397.21,4898.17 4385.75,4897.86 4372.57,4891.84 4356.31,4880.74 4347.03,4875.24 4336.33,4871.04 4326.55,4867.45"/>
    <poly id="118651695" type="amenity.parking" color="184,184,179" fill="1" layer="-1.00" shape="4462.12,4728.62 4464.98,4728.66 4510.63,4728.52 4517.28,4728.45 4517.19,4701.00 4462.04,4701.50 4462.06,4707.87 4462.12,4728.62"/>
    <poly id="118651698" type="amenity.parking" color="184,184,179" fill="1" layer="-1.00" shape="4417.43,4788.93 4467.16,4803.72 4469.44,4796.15 4474.00,4797.50 4480.43,4776.10 4475.46,4774.62 4477.72,4767.06 4438.26,4755.32 4436.73,4760.40 4426.88,4757.48 4425.71,4761.36 4419.84,4780.93 4417.43,4788.93"/>
    <poly id="118651700" type="amenity.parking" color="184,184,179" fill="1" layer="-1.00" shape="4406.52,4596.22 4399.49,4595.61 4405.74,4580.05 4410.83,4571.07 4429.50,4556.25 4452.75,4542.48 4458.06,4544.84 4463.71,4547.37 4432.79,4566.17 4422.23,4575.16 4414.84,4584.41 4406.52,4596.22"/>
    <poly id="118651705" type="amenity.parking" color="184,184,179" fill="1" layer="-1.00" shape="4062.84,5042.28 4087.38,5042.30 4087.35,5060.73 4097.49,5060.70 4097.32,5117.97 4163.63,5128.04 4161.41,5121.46 4169.88,5121.88 4170.35,5105.44 4164.62,5105.03 4166.08,5095.36 4162.90,5094.76 4164.39,5087.99 4122.25,5046.22 4103.36,5046.19 4103.01,5016.33 4102.37,5009.22 4099.33,4997.81 4089.79,5000.77 4062.40,5013.11 4062.84,5042.28"/>
    <poly id="118651708" type="amenity.parking" color="184,184,179" fill="1" layer="-1.00" shape="4652.43,5075.29 4652.61,5025.86 4647.12,5025.85 4647.14,5020.45 4539.50,5020.06 4539.29,5074.88 4652.43,5075.29"/>
    <poly id="118682203" type="waterway.drain" color="181,209,209" fill="0" layer="-4.00" shape="3026.22,4761.82 3023.62,4748.30 3020.01,4723.28 3016.48,4696.84 3013.83,4669.19 3012.42,4643.10 3011.80,4615.61 3012.29,4605.33 3013.85,4595.13 3018.35,4578.74"/>
    <poly id="118682212" type="amenity.parking" color="184,184,179" fill="1" layer="-1.00" shape="3229.39,4357.27 3240.21,4361.94 3253.55,4372.72 3274.68,4389.80 3269.07,4399.73 3210.03,4472.54 3207.89,4475.19 3196.14,4465.53 3194.22,4462.44 3193.85,4458.93 3193.51,4415.43 3193.78,4413.74 3194.33,4411.49 3191.77,4404.89 3229.39,4357.27"/>
    <poly id="118682214" type="amenity.parking" color="184,184,179" fill="1" layer="-1.00" shape="3233.14,4502.97 3286.01,4545.03 3336.91,4544.74 3340.07,4539.31 3420.49,4538.70 3428.46,4537.62 3510.60,4436.15 3517.13,4424.32 3475.78,4391.15 3467.02,4386.12 3454.71,4381.45 3440.58,4379.67 3368.29,4380.11 3359.56,4380.82 3352.15,4384.79 3344.77,4392.28 3332.42,4408.58 3320.17,4398.31 3313.88,4403.29 3303.33,4411.65 3240.16,4489.93 3237.68,4494.54 3233.14,4502.97"/>
    <poly id="118682216" type="amenity.parking" color="184,184,179" fill="1" layer="-1.00" shape="3122.85,4139.39 3154.18,4139.62 3153.86,4109.31 3179.12,4108.91 3179.30,4130.65 3181.97,4135.80 3193.48,4128.87 3200.69,4124.54 3186.26,4096.91 3179.87,4099.79 3167.21,4075.67 3148.57,4076.16 3148.75,4095.39 3128.88,4095.12 3128.81,4073.04 3098.14,4073.48 3098.05,4109.49 3122.86,4109.52 3122.85,4139.39"/>
    <poly id="118682218" type="amenity.parking" color="184,184,179" fill="1" layer="-1.00" shape="3700.49,5353.08 3698.97,5151.94 3679.18,5152.09 3679.71,5223.16 3686.67,5223.11 3687.26,5300.62 3680.03,5300.68 3680.42,5353.23 3700.49,5353.08"/>
    <poly id="118682219" type="waterway.drain" color="181,209,209" fill="0" layer="-4.00" shape="3073.33,4881.59 3031.94,4781.13"/>
    <poly id="118682388" type="landuse.residential" color="235,235,227" fill="1" layer="-3.00" shape="3286.17,5529.62 3333.64,5559.12 3342.20,5568.09 3347.81,5577.34 3353.29,5590.33 3482.89,5588.15 3482.53,5408.78 3480.25,5403.86 3477.92,5401.21 3473.47,5399.67 3392.00,5399.45 3385.86,5399.96 3285.57,5399.98 3286.17,5529.62"/>
    <poly id="118682390" type="waterway.drain" color="181,209,209" fill="0" layer="-4.00" shape="3018.35,4578.74 3020.68,4572.36"/>
    <poly id="118682392" type="amenity.parking" color="184,184,179" fill="1" layer="-1.00" shape="3248.99,4330.80 3272.18,4349.53 3290.45,4364.31 3294.21,4365.87 3297.55,4365.95 3300.88,4365.00 3311.48,4357.85 3316.99,4354.95 3326.56,4350.70 3335.94,4347.21 3347.18,4344.29 3360.46,4342.71 3440.79,4341.87 3445.45,4340.78 3451.22,4338.20 3455.87,4334.67 3460.55,4328.31 3462.12,4324.53 3462.78,4320.57 3469.36,4317.36 3468.82,4244.48 3463.24,4247.39 3463.20,4198.47 3462.39,4194.26 3460.40,4191.40 3458.03,4189.55 3455.14,4188.39 3451.85,4182.49 3353.68,4182.86 3335.94,4182.99 3259.25,4183.57 3255.63,4190.82 3250.79,4195.34 3249.82,4200.62 3248.15,4256.76 3246.14,4324.60 3247.26,4328.34 3248.99,4330.80"/>
    <poly id="118682394" type="waterway.drain" color="181,209,209" fill="0" layer="-4.00" shape="3020.68,4572.36 3027.24,4558.81 3035.05,4546.04 3050.07,4523.07 3071.06,4494.45 3090.04,4470.67 3107.10,4450.24 3121.17,4435.17 3185.91,4368.98 3193.48,4361.32 3202.01,4350.57"/>
    <poly id="118682397" type="amenity.swimming_pool" color="237,199,199" fill="1" layer="-1.00" shape="3392.77,5484.66 3396.38,5484.65 3396.36,5477.50 3390.60,5477.52 3390.32,5475.95 3389.52,5474.83 3388.16,5473.94 3386.23,5473.71 3384.55,5474.34 3383.19,5475.70 3382.63,5477.16 3382.98,5479.52 3384.17,5481.04 3385.47,5481.53 3386.77,5481.47 3386.84,5483.16 3392.70,5483.08 3392.77,5484.66"/>
    <poly id="118682399" type="waterway.drain" color="181,209,209" fill="0" layer="-4.00" shape="3031.94,4781.13 3026.22,4761.82"/>
    <poly id="119568923" type="building.yes" color="255,230,230" fill="1" layer="-1.00" shape="2708.53,5376.34 2723.77,5376.29 2723.73,5365.14 2730.32,5362.46 2736.10,5357.56 2742.37,5348.82 2744.01,5340.79 2744.28,5332.36 2741.99,5326.10 2735.78,5318.58 2730.25,5314.49 2723.86,5313.04 2723.13,5214.25 2708.57,5213.90 2708.53,5376.34"/>
    <poly id="119568926" type="landuse.residential" color="235,235,227" fill="1" layer="-3.00" shape="2705.08,5378.92 2711.60,5381.48 2722.55,5381.44 2838.85,5239.07 2801.78,5202.63 2701.47,5202.53 2701.85,5371.84 2703.10,5375.87 2705.08,5378.92"/>
    <poly id="119568927" type="amenity.parking" color="184,184,179" fill="1" layer="-1.00" shape="2733.42,5308.12 2760.69,5329.75 2833.72,5241.24 2806.29,5218.86 2803.94,5222.00 2801.02,5219.51 2733.15,5302.21 2733.42,5308.12"/>
    <poly id="119568927#1" type="building.yes" color="255,230,230" fill="1" layer="-1.00" shape="2733.42,5308.12 2760.69,5329.75 2833.72,5241.24 2806.29,5218.86 2803.94,5222.00 2801.02,5219.51 2733.15,5302.21 2733.42,5308.12"/>
    <poly id="125185720" type="amenity.assisted_living" color="237,199,199" fill="1" layer="-1.00" shape="1817.41,4347.30 1863.77,4346.81 1867.31,4344.87 1869.11,4341.66 1869.83,4337.65 1869.62,4274.64 1868.66,4270.65 1866.65,4267.72 1864.43,4266.27 1860.94,4265.88 1816.66,4266.43 1817.41,4347.30"/>
    <poly id="125367071" type="leisure.golf_course" color="207,245,201" fill="1" layer="-2.00" shape="1719.68,3241.53 1652.64,3231.61 1639.15,3307.27 1652.14,3307.93 1647.27,3376.84 1584.33,3376.68 1465.90,3377.99 1376.04,3376.20 1350.92,3378.96 1325.79,3368.25 1293.71,3315.75 1266.89,3307.48 1266.42,3292.38 1236.89,3263.87 1167.00,3260.88 1101.03,3270.75 1041.12,3276.49 1012.02,3219.16 990.48,3153.52 964.30,3118.35 916.26,3115.43 889.74,3120.32 854.41,3174.63 794.34,3203.68 837.53,3223.46 789.27,3272.75 749.32,3272.74 712.28,3276.97 654.10,3240.69 636.35,3235.12 616.76,3232.46 532.70,3239.33 534.11,3246.84 423.17,3279.98 391.88,3287.63 338.98,3300.66 274.98,3331.16 237.04,3339.80 219.45,3333.78 231.62,3283.11 251.76,3238.17 33.48,3239.10 -5.74,3271.31 -13.28,3280.99 -27.46,3294.79 -41.09,3307.92 -99.59,3355.25 -115.25,3367.95 -124.47,3374.08 -103.74,3517.36 -50.13,3526.20 -0.52,3523.47 -1.18,3544.13 51.54,3527.79 56.17,3553.68 111.31,3623.34 39.35,3657.34 66.88,3680.05 86.12,3717.53 111.09,3717.52 151.57,3788.77 152.80,3792.17 165.43,3793.24 171.13,3792.28 173.98,3793.54 207.74,3774.12 248.30,3753.50 284.29,3748.51 317.45,3746.14 313.56,3724.21 359.05,3686.88 383.47,3666.96 421.93,3639.06 450.28,3619.52 467.61,3601.22 497.52,3598.59 495.27,3602.89 495.30,3611.22 490.17,3622.91 484.56,3627.69 482.69,3631.36 482.94,3636.02 484.69,3642.17 489.55,3645.19 493.69,3645.80 498.92,3640.48 503.69,3639.69 508.86,3642.86 513.64,3645.80 518.42,3647.26 520.69,3648.51 522.08,3651.33 549.84,3650.47 550.17,3611.69 604.56,3608.97 665.06,3591.12 664.68,3561.60 714.78,3556.46 774.07,3561.47 866.08,3552.33 913.58,3540.82 939.52,3538.99 1002.32,3540.76 1082.39,3554.97 1107.21,3566.24 1152.10,3570.66 1205.13,3536.34 1227.35,3527.13 1232.53,3538.44 1261.02,3558.31 1322.26,3537.35 1336.26,3547.54 1371.05,3556.73 1397.37,3571.45 1430.30,3573.40 1477.44,3568.92 1558.75,3548.06 1595.64,3559.56 1650.41,3547.11 1719.20,3478.09 1731.66,3452.76 1746.81,3443.66 1757.57,3444.72 1765.00,3437.04 1762.17,3430.96 1752.86,3424.78 1744.97,3389.41 1743.79,3353.92 1763.11,3341.84 1719.68,3241.53"/>
    <poly id="125367082" type="landuse.residential" color="235,235,227" fill="1" layer="-3.00" shape="1981.37,3150.47 1995.20,3156.40 2001.32,3157.39 2005.40,3155.80 2010.15,3151.95 2015.23,3149.56 2027.01,3147.95 2041.61,3144.52 2055.99,3142.32 2066.52,3140.82 2086.68,3142.10 2112.40,3144.72 2116.25,3144.27 2120.44,3141.66 2123.14,3137.36 2128.21,3127.76 2163.29,3049.28 2165.30,3043.30 2166.52,3036.42 2172.11,2981.94 2172.79,2979.12 2174.83,2977.53 2178.90,2976.84 2213.55,2977.19 2219.90,2973.07 2231.08,2971.06 2239.99,2925.10 2238.98,2920.02 2237.53,2911.01 2212.40,2887.98 2223.03,2850.59 2216.70,2820.17 2193.63,2823.91 2164.75,2825.98 2124.97,2825.69 2094.66,2824.81 2088.86,2826.66 2085.76,2829.63 2083.65,2834.71 1981.37,3150.47"/>
    <poly id="143526930" type="leisure.park" color="207,245,201" fill="1" layer="-2.00" shape="5121.98,5079.55 5196.24,5057.62 5197.20,5046.76 5232.88,5048.63 5290.13,5068.03 5322.91,5093.58 5359.78,5159.56 5378.07,5210.96 5383.23,5277.04 5377.44,5330.32 5368.31,5357.82 5536.78,5355.34 5558.81,5331.75 5561.68,5298.20 5554.72,5273.21 5500.50,5270.82 5496.30,4978.77 5113.78,4988.82 5121.98,5079.55"/>
    <poly id="158533421" type="building.university" color="255,230,230" fill="1" layer="-1.00" shape="3785.28,4454.02 3844.79,4453.79 3843.25,4437.02 3839.28,4436.04 3838.75,4426.67 3848.66,4425.66 3847.58,4398.03 3801.99,4397.69 3801.10,4414.03 3793.99,4414.50 3794.31,4430.41 3799.12,4430.07 3799.14,4437.16 3784.77,4437.30 3785.28,4454.02"/>
    <poly id="190548149" type="building.yes" color="255,230,230" fill="1" layer="-1.00" shape="2005.18,4905.36 2005.38,4830.63 2034.26,4830.25 2034.16,4870.07 2027.94,4870.06 2027.85,4905.42 2005.18,4905.36"/>
    <poly id="190548151" type="building.yes" color="255,230,230" fill="1" layer="-1.00" shape="2004.63,4746.33 2004.85,4762.95 1999.52,4763.02 2000.03,4802.10 2002.92,4802.05 2003.30,4830.66 2005.38,4830.63 2034.26,4830.25 2069.37,4829.79 2068.26,4745.51 2004.63,4746.33"/>
    <poly id="190548158" type="building.yes" color="255,230,230" fill="1" layer="-1.00" shape="1934.77,4729.99 2001.81,4728.84 2001.45,4707.72 1934.40,4708.87 1934.77,4729.99"/>
    <poly id="190548161" type="building.yes" color="255,230,230" fill="1" layer="-1.00" shape="1912.49,4958.28 1935.25,4958.20 1935.12,4920.55 1912.05,4920.33 1912.49,4958.28"/>
    <poly id="190548164" type="building.yes" color="255,230,230" fill="1" layer="-1.00" shape="1911.27,4871.04 1931.57,4870.97 1931.16,4841.28 1910.86,4841.65 1911.27,4871.04"/>
    <poly id="190548167" type="building.yes" color="255,230,230" fill="1" layer="-1.00" shape="1974.97,4961.91 1974.70,4937.23 1984.33,4937.13 1984.59,4961.82 1974.97,4961.91"/>
    <poly id="190548174" type="building.yes" color="255,230,230" fill="1" layer="-1.00" shape="2064.41,4965.99 2064.71,4937.84 2077.96,4937.98 2077.78,4953.88 2082.93,4953.94 2082.85,4962.01 2077.95,4961.96 2077.91,4966.13 2064.41,4965.99"/>
    <poly id="190548178" type="building.yes" color="255,230,230" fill="1" layer="-1.00" shape="1916.81,4776.88 1916.97,4756.84 1938.98,4757.00 1938.89,4770.22 1927.64,4770.13 1927.58,4776.95 1916.81,4776.88"/>
    <poly id="190548182" type="building.yes" color="255,230,230" fill="1" layer="-1.00" shape="1751.90,4628.36 1751.75,4580.42 1857.80,4580.07 1857.96,4628.01 1751.90,4628.36"/>
    <poly id="190548185" type="building.yes" color="255,230,230" fill="1" layer="-1.00" shape="1765.39,4758.77 1821.55,4758.78 1821.55,4675.08 1765.39,4675.07 1765.39,4758.77"/>
    <poly id="190548187" type="building.yes" color="255,230,230" fill="1" layer="-1.00" shape="1746.74,4770.96 1747.20,4811.87 1754.73,4811.85 1761.65,4815.57 1785.18,4816.12 1784.90,4827.04 1789.75,4827.16 1809.14,4827.20 1810.43,4768.87 1746.74,4770.96"/>
    <poly id="190548190" type="building.yes" color="255,230,230" fill="1" layer="-1.00" shape="1789.75,4827.16 1789.81,4881.37 1819.88,4880.97 1820.05,4856.63 1809.09,4856.61 1809.14,4827.20 1789.75,4827.16"/>
    <poly id="190548193" type="building.yes" color="255,230,230" fill="1" layer="-1.00" shape="1819.88,4880.97 1820.50,4927.04 1790.38,4927.48 1790.09,4900.07 1789.81,4881.37 1819.88,4880.97"/>
    <poly id="190548196" type="building.yes" color="255,230,230" fill="1" layer="-1.00" shape="1790.38,4927.48 1735.14,4928.05 1734.85,4900.64 1790.09,4900.07 1790.38,4927.48"/>
    <poly id="190548199" type="building.yes" color="255,230,230" fill="1" layer="-1.00" shape="1714.33,4965.67 1714.13,4915.28 1693.21,4915.36 1693.40,4965.76 1714.33,4965.67"/>
    <poly id="190548826" type="leisure.pitch" color="207,245,201" fill="1" layer="-2.00" shape="1610.35,5365.71 1609.39,5301.88 1637.94,5302.78 1660.03,5314.92 1668.60,5330.35 1676.16,5345.28 1677.72,5359.49 1677.00,5369.47 1617.38,5371.41 1610.35,5365.71"/>
    <poly id="190548826#1" type="sport.baseball" color="79,230,125" fill="1" layer="-2.00" shape="1610.35,5365.71 1609.39,5301.88 1637.94,5302.78 1660.03,5314.92 1668.60,5330.35 1676.16,5345.28 1677.72,5359.49 1677.00,5369.47 1617.38,5371.41 1610.35,5365.71"/>
    <poly id="190548829" type="leisure.playground" color="207,245,201" fill="1" layer="-2.00" shape="1551.93,5359.20 1548.33,5355.06 1546.80,5350.17 1547.16,5345.83 1549.60,5341.86 1553.57,5338.85 1557.92,5337.70 1562.27,5338.44 1565.32,5342.94 1566.85,5346.71 1574.80,5346.49 1578.75,5341.39 1581.97,5338.94 1586.50,5338.73 1589.91,5339.29 1592.95,5341.90 1594.48,5346.80 1595.08,5352.26 1593.95,5356.23 1591.69,5357.55 1585.05,5355.31 1575.21,5357.05 1567.47,5360.65 1560.84,5361.24 1553.65,5361.08 1551.93,5359.20"/>
    <poly id="192774533" type="leisure.pitch" color="207,245,201" fill="1" layer="-2.00" shape="4488.61,5366.96 4488.51,5267.57 4601.40,5267.45 4601.49,5366.85 4488.61,5366.96"/>
    <poly id="192774533#1" type="sport.multi" color="79,230,125" fill="1" layer="-2.00" shape="4488.61,5366.96 4488.51,5267.57 4601.40,5267.45 4601.49,5366.85 4488.61,5366.96"/>
    <poly id="233256033" type="building.yes" color="255,230,230" fill="1" layer="-1.00" shape="1535.30,4969.80 1554.26,4969.93 1560.27,4969.53 1562.51,4966.53 1575.09,4966.12 1575.83,4963.12 1595.74,4963.62 1597.62,4966.97 1602.70,4966.77 1605.31,4962.64 1603.42,4959.48 1601.36,4958.54 1601.68,4945.83 1604.49,4942.09 1536.33,4940.64 1536.34,4945.68 1535.30,4969.80"/>
    <poly id="233256034" type="building.yes" color="255,230,230" fill="1" layer="-1.00" shape="1662.23,4970.11 1663.27,4943.76 1617.07,4943.54 1617.13,4960.17 1615.64,4962.98 1617.15,4966.72 1620.54,4968.20 1624.66,4965.76 1625.78,4963.88 1628.42,4966.12 1631.80,4966.29 1631.81,4969.47 1662.23,4970.11"/>
    <poly id="233256430" type="amenity.parking" color="184,184,179" fill="1" layer="-1.00" shape="1536.33,4940.64 1663.27,4943.76 1662.49,4911.83 1655.41,4912.11 1655.65,4905.59 1658.80,4905.32 1659.27,4893.07 1654.82,4893.08 1655.58,4886.83 1552.66,4886.66 1552.15,4890.83 1535.65,4890.89 1536.33,4940.64"/>
    <poly id="233256431" type="building.yes" color="255,230,230" fill="1" layer="-1.00" shape="1572.24,5020.06 1572.45,5007.55 1586.86,5007.24 1586.90,5018.71 1586.96,5036.96 1581.46,5036.71 1581.96,5028.90 1577.76,5028.64 1578.52,5020.30 1572.24,5020.06"/>
    <poly id="233256432" type="building.yes" color="255,230,230" fill="1" layer="-1.00" shape="1586.96,5036.96 1600.84,5037.17 1600.52,5018.40 1586.90,5018.71 1586.96,5036.96"/>
    <poly id="233256433" type="building.yes" color="255,230,230" fill="1" layer="-1.00" shape="1605.19,5007.96 1625.10,5007.63 1624.66,5032.65 1620.99,5032.66 1621.50,5026.41 1608.40,5027.24 1608.39,5024.64 1606.03,5023.86 1605.19,5007.96"/>
    <poly id="233256434" type="building.yes" color="255,230,230" fill="1" layer="-1.00" shape="1635.63,5024.54 1626.20,5024.31 1625.10,5007.63 1636.10,5007.85 1635.63,5024.54"/>
    <poly id="233256435" type="building.yes" color="255,230,230" fill="1" layer="-1.00" shape="1676.77,5031.70 1676.43,5008.24 1662.03,5009.33 1661.85,5033.57 1668.14,5033.55 1668.13,5030.68 1676.77,5031.70"/>
    <poly id="233256436" type="building.yes" color="255,230,230" fill="1" layer="-1.00" shape="1858.53,5030.56 1874.77,5030.23 1874.46,5018.77 1858.74,5017.78 1858.53,5030.56"/>
    <poly id="233256521" type="building.yes" color="255,230,230" fill="1" layer="-1.00" shape="1903.37,5046.83 1929.04,5046.74 1929.53,5041.00 1937.13,5040.46 1937.02,5009.69 1930.48,5010.23 1930.21,5007.37 1919.73,5007.14 1919.22,5010.54 1903.77,5010.59 1903.37,5046.83"/>
    <poly id="233256522" type="building.yes" color="255,230,230" fill="1" layer="-1.00" shape="2042.67,5038.54 2051.83,5038.76 2051.49,5013.48 2043.37,5013.24 2042.67,5038.54"/>