<?xml version="1.0"?>
<!-- generated on 2016-12-11 17:12:51.078029 by $Id: route2trips.py 20433 2016-04-13 08:00:14Z behrisch $ -->
<trips>
    <vType id="passenger" vClass="passenger"/>
    <trip id="veh0" depart="0.00" departLane="best" from="202770801#0" to="-106624250" type="passenger"/>
    <trip id="veh1" depart="0.27" departLane="best" from="-7175219#1" to="-7117437#0" type="passenger"/>
    <trip id="veh3" depart="0.80" departLane="best" from="-7311009#2" to="-118651687#1" type="passenger"/>
    <trip id="veh4" depart="1.07" departLane="best" from="-7123182#1" to="123541512#2" type="passenger"/>
    <trip id="veh5" depart="1.33" departLane="best" from="-118651687#1" to="-7105326#0" type="passenger"/>
    <trip id="veh6" depart="1.60" departLane="best" from="202770843" to="182019820#9" type="passenger"/>
    <trip id="veh7" depart="1.87" departLane="best" from="-7123182#4" to="62207073#0" type="passenger"/>
    <trip id="veh8" depart="2.13" departLane="best" from="7133071#1" to="-105141649#5" type="passenger"/>
    <trip id="veh9" depart="2.40" departLane="best" from="7131987#0" to="7117915#5" type="passenger"/>
    <trip id="veh10" depart="2.67" departLane="best" from="-7245627#1" to="-7070561" type="passenger"/>
    <trip id="veh11" depart="2.93" departLane="best" from="7327325#1" to="-7237382#0" type="passenger"/>
    <trip id="veh13" depart="3.47" departLane="best" from="7182895" to="7084393#1" type="passenger"/>
    <trip id="veh14" depart="3.73" departLane="best" from="7131987#2" to="7150791#3" type="passenger"/>
    <trip id="veh15" depart="4.00" departLane="best" from="106624247" to="80565714#5" type="passenger"/>
    <trip id="veh16" depart="4.27" departLane="best" from="-7269854" to="202770802" type="passenger"/>
    <trip id="veh17" depart="4.53" departLane="best" from="7152027#0" to="7094168" type="passenger"/>
    <trip id="veh18" depart="4.80" departLane="best" from="7199585" to="357835212#1" type="passenger"/>
    <trip id="veh19" depart="5.07" departLane="best" from="7042982" to="-125135481#4" type="passenger"/>
    <trip id="veh20" depart="5.33" departLane="best" from="-7133071#0" to="-7175219#1" type="passenger"/>
    <trip id="veh21" depart="5.60" departLane="best" from="-202770801#3" to="-7117920" type="passenger"/>
    <trip id="veh22" depart="5.87" departLane="best" from="-357842386" to="-7162977" type="passenger"/>
    <trip id="veh23" depart="6.14" departLane="best" from="202770799#1" to="-7278066#0" type="passenger"/>
    <trip id="veh24" depart="6.40" departLane="best" from="-7264391" to="-7116191#0" type="passenger"/>
    <trip id="veh25" depart="6.67" departLane="best" from="-7168454" to="7328604#2" type="passenger"/>
    <trip id="veh26" depart="6.94" departLane="best" from="202770805#2" to="7085899#2" type="passenger"/>
    <trip id="veh27" depart="7.20" departLane="best" from="-7105326#1" to="7150791#2" type="passenger"/>
    <trip id="veh28" depart="7.47" departLane="best" from="-7102287" to="-7297392" type="passenger"/>
    <trip id="veh30" depart="8.00" departLane="best" from="119568930#0" to="7116833" type="passenger"/>
    <trip id="veh31" depart="8.27" departLane="best" from="7168458" to="7197500" type="passenger"/>
    <trip id="veh32" depart="8.54" departLane="best" from="-7133071#1" to="-118682210#0" type="passenger"/>
    <trip id="veh33" depart="8.80" departLane="best" from="-7231804" to="-7150260#0" type="passenger"/>
    <trip id="veh34" depart="9.07" departLane="best" from="-7117915#5" to="7337276#2" type="passenger"/>
    <trip id="veh35" depart="9.34" departLane="best" from="7225572" to="-7205529" type="passenger"/>
    <trip id="veh36" depart="9.60" departLane="best" from="265007775#0" to="-7318375#3" type="passenger"/>
    <trip id="veh37" depart="9.87" departLane="best" from="7276267#0" to="106624231#1" type="passenger"/>
    <trip id="veh38" depart="10.14" departLane="best" from="-7163235" to="-7131987#0" type="passenger"/>
    <trip id="veh39" depart="10.40" departLane="best" from="123541495#0-AddedOffRampEdge" to="-7144502" type="passenger"/>
    <trip id="veh40" depart="10.67" departLane="best" from="125367062" to="7294206" type="passenger"/>
    <trip id="veh41" depart="10.94" departLane="best" from="-7279670" to="-7117365#3" type="passenger"/>
    <trip id="veh42" depart="11.20" departLane="best" from="80678446#1" to="123541512#3-AddedOnRampEdge" type="passenger"/>
    <trip id="veh43" depart="11.47" departLane="best" from="-265007775#7" to="-125135481#6" type="passenger"/>
    <trip id="veh44" depart="11.74" departLane="best" from="-7080847#0" to="7094519#3" type="passenger"/>
    <trip id="veh45" depart="12.00" departLane="best" from="7123182#0" to="-80565098#4" type="passenger"/>
    <trip id="veh46" depart="12.27" departLane="best" from="-182019820#11" to="-7302817" type="passenger"/>
    <trip id="veh47" depart="12.54" departLane="best" from="80673416#0" to="142845945#1" type="passenger"/>
    <trip id="veh48" depart="12.80" departLane="best" from="80565076#1" to="7264391" type="passenger"/>
    <trip id="veh49" depart="13.07" departLane="best" from="-106624234#0" to="7148398#1" type="passenger"/>
    <trip id="veh50" depart="13.34" departLane="best" from="366194779" to="182019820#14" type="passenger"/>
    <trip id="veh52" depart="13.87" departLane="best" from="-7080847#2" to="-80566602#0" type="passenger"/>
    <trip id="veh53" depart="14.14" departLane="best" from="-7328604#2" to="7341683" type="passenger"/>
    <trip id="veh54" depart="14.40" departLane="best" from="7221323" to="-7145017" type="passenger"/>
    <trip id="veh55" depart="14.67" departLane="best" from="-80673416#1" to="-7085899#6" type="passenger"/>
    <trip id="veh56" depart="14.94" departLane="best" from="7272035" to="7269854" type="passenger"/>
    <trip id="veh58" depart="15.47" departLane="best" from="125367105" to="-62207109#1" type="passenger"/>
    <trip id="veh59" depart="15.74" departLane="best" from="7112498#2" to="182019820#14" type="passenger"/>
    <trip id="veh60" depart="16.00" departLane="best" from="7117437#0" to="142846204" type="passenger"/>
    <trip id="veh61" depart="16.27" departLane="best" from="-105141649#1" to="-7225572" type="passenger"/>
    <trip id="veh62" depart="16.54" departLane="best" from="-118584064#1" to="7327325#6" type="passenger"/>
    <trip id="veh63" depart="16.80" departLane="best" from="7225572" to="7245627#1" type="passenger"/>
    <trip id="veh64" depart="17.07" departLane="best" from="-7215344" to="-125367072" type="passenger"/>
    <trip id="veh65" depart="17.34" departLane="best" from="7225572" to="7339390#1" type="passenger"/>
    <trip id="veh66" depart="17.61" departLane="best" from="-202771058#0" to="118682210#3" type="passenger"/>
    <trip id="veh67" depart="17.87" departLane="best" from="-182019820#2" to="7174292" type="passenger"/>
    <trip id="veh68" depart="18.14" departLane="best" from="7116191#1" to="-346925177" type="passenger"/>
    <trip id="veh69" depart="18.41" departLane="best" from="-80565098#3" to="202770801#2" type="passenger"/>
    <trip id="veh70" depart="18.67" departLane="best" from="-7166974#1" to="7276260#1" type="passenger"/>
    <trip id="veh71" depart="18.94" departLane="best" from="-7311009#3" to="-7116191#3" type="passenger"/>
    <trip id="veh72" depart="19.21" departLane="best" from="118584064#1" to="7150791#3" type="passenger"/>
    <trip id="veh73" depart="19.47" departLane="best" from="-7117365#3" to="-7204030#1" type="passenger"/>
    <trip id="veh74" depart="19.74" departLane="best" from="-7326169#3" to="125185719#3" type="passenger"/>
    <trip id="veh75" depart="20.01" departLane="best" from="-7245118#1" to="62206969#1-AddedOnRampEdge" type="passenger"/>
    <trip id="veh76" depart="20.27" departLane="best" from="-7142669#1" to="-7117365#4" type="passenger"/>
    <trip id="veh77" depart="20.54" departLane="best" from="-182019820#5" to="7095958" type="passenger"/>
    <trip id="veh78" depart="20.81" departLane="best" from="-7133071#1" to="7307401#1" type="passenger"/>
    <trip id="veh79" depart="21.07" departLane="best" from="7199585" to="-125367091" type="passenger"/>
    <trip id="veh80" depart="21.34" departLane="best" from="-7150260#1" to="7108519" type="passenger"/>
    <trip id="veh81" depart="21.61" departLane="best" from="7302817" to="35147687" type="passenger"/>
    <trip id="veh82" depart="21.87" departLane="best" from="-80565078" to="7200086#1" type="passenger"/>
    <trip id="veh84" depart="22.41" departLane="best" from="-357835212#0" to="-80566601#0" type="passenger"/>
    <trip id="veh85" depart="22.67" departLane="best" from="-7311009#4" to="106624243#3" type="passenger"/>
    <trip id="veh86" depart="22.94" departLane="best" from="7085899#4" to="7112459" type="passenger"/>
    <trip id="veh87" depart="23.21" departLane="best" from="80565725#1" to="-182019820#9" type="passenger"/>
    <trip id="veh88" depart="23.47" departLane="best" from="-7281810" to="-7245118#1" type="passenger"/>
    <trip id="veh89" depart="23.74" departLane="best" from="7199585" to="-7131987#0" type="passenger"/>
    <trip id="veh90" depart="24.01" departLane="best" from="-7112498#4" to="106466827" type="passenger"/>
    <trip id="veh91" depart="24.27" departLane="best" from="-7311009#1" to="-7162977" type="passenger"/>
    <trip id="veh92" depart="24.54" departLane="best" from="-7151339#2" to="7326169#3" type="passenger"/>
    <trip id="veh93" depart="24.81" departLane="best" from="-7327325#4" to="7264391" type="passenger"/>
    <trip id="veh94" depart="25.07" departLane="best" from="118682210#4" to="-125185719#3" type="passenger"/>
    <trip id="veh96" depart="25.61" departLane="best" from="7337988" to="7327325#2" type="passenger"/>
    <trip id="veh97" depart="25.87" departLane="best" from="7188731#0" to="-7081734#0" type="passenger"/>
    <trip id="veh98" depart="26.14" departLane="best" from="-80565722#0" to="-7116191#6" type="passenger"/>
    <trip id="veh99" depart="26.41" departLane="best" from="-7279670" to="-125367072" type="passenger"/>
    <trip id="veh100" depart="26.67" departLane="best" from="-7269854" to="80566602#6" type="passenger"/>
    <trip id="veh101" depart="26.94" departLane="best" from="-7166974#1" to="7200086#1" type="passenger"/>
    <trip id="veh102" depart="27.21" departLane="best" from="-7337276#0" to="-80565710#0" type="passenger"/>
    <trip id="veh103" depart="27.47" departLane="best" from="7327325#1" to="80678467#1-AddedOffRampEdge" type="passenger"/>
    <trip id="veh104" depart="27.74" departLane="best" from="118682393#1" to="7145017" type="passenger"/>
    <trip id="veh106" depart="28.27" departLane="best" from="7337988" to="357835216#1" type="passenger"/>
    <trip id="veh107" depart="28.54" departLane="best" from="118651686#0" to="7161522#0" type="passenger"/>
    <trip id="veh108" depart="28.81" departLane="best" from="-142845945#1" to="452312259" type="passenger"/>
    <trip id="veh109" depart="29.08" departLane="best" from="-80673416#1" to="7256988" type="passenger"/>
    <trip id="veh112" depart="29.88" departLane="best" from="125367085" to="7112498#2" type="passenger"/>
    <trip id="veh113" depart="30.14" departLane="best" from="-7148398#3" to="-265007775#0" type="passenger"/>
    <trip id="veh114" depart="30.41" departLane="best" from="7237377#2" to="-7131987#0" type="passenger"/>
    <trip id="veh115" depart="30.68" departLane="best" from="125367085" to="7094168" type="passenger"/>
    <trip id="veh116" depart="30.94" departLane="best" from="106624229#1" to="7327589#2" type="passenger"/>
    <trip id="veh117" depart="31.21" departLane="best" from="-7117437#2" to="7133071#2" type="passenger"/>
    <trip id="veh118" depart="31.48" departLane="best" from="-7150260#1" to="-7318375#4" type="passenger"/>
    <trip id="veh120" depart="32.01" departLane="best" from="-7231804" to="7161522#1" type="passenger"/>
    <trip id="veh121" depart="32.28" departLane="best" from="-182019820#7" to="106624231#0" type="passenger"/>
    <trip id="veh122" depart="32.54" departLane="best" from="-182019820#8" to="-7116191#5" type="passenger"/>
    <trip id="veh123" depart="32.81" departLane="best" from="-7166974#1" to="7327589#2" type="passenger"/>
    <trip id="veh124" depart="33.08" departLane="best" from="7233219#0" to="7276267#1" type="passenger"/>
    <trip id="veh125" depart="33.34" departLane="best" from="-7264391" to="-7070561" type="passenger"/>
    <trip id="veh126" depart="33.61" departLane="best" from="7162977" to="7122591" type="passenger"/>
    <trip id="veh127" depart="33.88" departLane="best" from="202771060" to="-106624223#0" type="passenger"/>
    <trip id="veh128" depart="34.14" departLane="best" from="7142669#0" to="-7196933#3" type="passenger"/>
    <trip id="veh129" depart="34.41" departLane="best" from="265007775#9" to="7328604#2" type="passenger"/>
    <trip id="veh130" depart="34.68" departLane="best" from="-7094168" to="-202770987" type="passenger"/>
    <trip id="veh131" depart="34.94" departLane="best" from="-62207109#0" to="202770805#2" type="passenger"/>
    <trip id="veh132" depart="35.21" departLane="best" from="-7174292" to="7084871#0" type="passenger"/>
    <trip id="veh133" depart="35.48" departLane="best" from="7080847#9" to="-7112291" type="passenger"/>
    <trip id="veh134" depart="35.74" departLane="best" from="185937919#1" to="-7145032" type="passenger"/>
    <trip id="veh135" depart="36.01" departLane="best" from="-80566601#0" to="7307401#1" type="passenger"/>
    <trip id="veh136" depart="36.28" departLane="best" from="7175219#1" to="-182019820#12" type="passenger"/>
    <trip id="veh137" depart="36.54" departLane="best" from="-7311009#4" to="-7162977" type="passenger"/>
    <trip id="veh138" depart="36.81" departLane="best" from="-105141649#6" to="7196933#1" type="passenger"/>
    <trip id="veh139" depart="37.08" departLane="best" from="202770801#0" to="-7142669#1" type="passenger"/>
    <trip id="veh141" depart="37.61" departLane="best" from="-7311245#1" to="-106624223#0" type="passenger"/>
    <trip id="veh142" depart="37.88" departLane="best" from="-185937919#1" to="7277027" type="passenger"/>
    <trip id="veh143" depart="38.14" departLane="best" from="7245637#5" to="185937919#0" type="passenger"/>
    <trip id="veh144" depart="38.41" departLane="best" from="7162977" to="357842386" type="passenger"/>
    <trip id="veh145" depart="38.68" departLane="best" from="-7095958" to="-346925177" type="passenger"/>
    <trip id="veh146" depart="38.94" departLane="best" from="7123182#6" to="7264391" type="passenger"/>
    <trip id="veh147" depart="39.21" departLane="best" from="7245637#0" to="-7116191#1" type="passenger"/>
    <trip id="veh148" depart="39.48" departLane="best" from="-7151339#2" to="-202770801#0" type="passenger"/>
    <trip id="veh149" depart="39.74" departLane="best" from="-7285042#2" to="7094168" type="passenger"/>
    <trip id="veh151" depart="40.28" departLane="best" from="7200086#0" to="80565725#0" type="passenger"/>
    <trip id="veh152" depart="40.55" departLane="best" from="7140062" to="7276317#2" type="passenger"/>
    <trip id="veh153" depart="40.81" departLane="best" from="-118584136#1" to="7151339#2" type="passenger"/>
    <trip id="veh154" depart="41.08" departLane="best" from="-7236769" to="7327589#0" type="passenger"/>
    <trip id="veh155" depart="41.35" departLane="best" from="7131599" to="7268741" type="passenger"/>
    <trip id="veh156" depart="41.61" departLane="best" from="7140062" to="-7148398#3" type="passenger"/>
    <trip id="veh157" depart="41.88" departLane="best" from="7117920" to="-202770802" type="passenger"/>
    <trip id="veh158" depart="42.15" departLane="best" from="7217672" to="7264145" type="passenger"/>
    <trip id="veh159" depart="42.41" departLane="best" from="-7123182#7" to="7234624#1" type="passenger"/>
    <trip id="veh160" depart="42.68" departLane="best" from="-7339390#0" to="-7199585" type="passenger"/>
    <trip id="veh161" depart="42.95" departLane="best" from="7123182#5" to="-7117437#5" type="passenger"/>
    <trip id="veh162" depart="43.21" departLane="best" from="-118584064#3" to="-7100362" type="passenger"/>
    <trip id="veh163" depart="43.48" departLane="best" from="-7234624#1" to="7268741" type="passenger"/>
    <trip id="veh164" depart="43.75" departLane="best" from="7337988" to="-7163235" type="passenger"/>
    <trip id="veh165" depart="44.01" departLane="best" from="202770801#3" to="-7326143#0" type="passenger"/>
    <trip id="veh166" depart="44.28" departLane="best" from="80565722#0" to="182019820#13" type="passenger"/>
    <trip id="veh167" depart="44.55" departLane="best" from="7311009#2" to="-202770987" type="passenger"/>
    <trip id="veh168" depart="44.81" departLane="best" from="80565076#0" to="-7085899#6" type="passenger"/>
    <trip id="veh169" depart="45.08" departLane="best" from="7327589#1" to="-7148398#1" type="passenger"/>
    <trip id="veh170" depart="45.35" departLane="best" from="-62207109#2" to="-80566602#0" type="passenger"/>
    <trip id="veh171" depart="45.61" departLane="best" from="7085899#3" to="-7205527#0" type="passenger"/>
    <trip id="veh172" depart="45.88" departLane="best" from="125367105" to="125135481#2" type="passenger"/>
    <trip id="veh173" depart="46.15" departLane="best" from="-7276267#1" to="35148067#1" type="passenger"/>
    <trip id="veh174" depart="46.41" departLane="best" from="-7152027#3" to="7123182#6" type="passenger"/>
    <trip id="veh175" depart="46.68" departLane="best" from="-105141649#3" to="7327325#1" type="passenger"/>
    <trip id="veh176" depart="46.95" departLane="best" from="118584064#0" to="7145032" type="passenger"/>
    <trip id="veh178" depart="47.48" departLane="best" from="-7259009#1" to="-125367087" type="passenger"/>
    <trip id="veh180" depart="48.01" departLane="best" from="-7231804" to="7251214" type="passenger"/>
    <trip id="veh181" depart="48.28" departLane="best" from="7084393#0" to="-7198338#0" type="passenger"/>
    <trip id="veh182" depart="48.55" departLane="best" from="-7217672" to="-7327325#7" type="passenger"/>
    <trip id="veh183" depart="48.81" departLane="best" from="-7281810" to="-7196933#0" type="passenger"/>
    <trip id="veh184" depart="49.08" departLane="best" from="-7085899#7" to="-80565098#1" type="passenger"/>
    <trip id="veh185" depart="49.35" departLane="best" from="7311245#0" to="7112498#5" type="passenger"/>
    <trip id="veh187" depart="49.88" departLane="best" from="-7204030#2" to="202770799#1" type="passenger"/>
    <trip id="veh188" depart="50.15" departLane="best" from="-105141649#1" to="-7168458" type="passenger"/>
    <trip id="veh189" depart="50.41" departLane="best" from="-7318375#0" to="357842386" type="passenger"/>
    <trip id="veh190" depart="50.68" departLane="best" from="265007775#0" to="106624241" type="passenger"/>
    <trip id="veh191" depart="50.95" departLane="best" from="-7327325#3" to="-7116191#6" type="passenger"/>
    <trip id="veh192" depart="51.21" departLane="best" from="-80565098#0" to="7294206" type="passenger"/>
    <trip id="veh193" depart="51.48" departLane="best" from="7123182#6" to="-7084393#0" type="passenger"/>
    <trip id="veh194" depart="51.75" departLane="best" from="182019820#9" to="-7237377#1" type="passenger"/>
    <trip id="veh195" depart="52.02" departLane="best" from="7144502" to="7161522#1" type="passenger"/>
    <trip id="veh197" depart="52.55" departLane="best" from="-7116833" to="-106624248" type="passenger"/>
    <trip id="veh198" depart="52.82" departLane="best" from="-7150791#4" to="118584064#3" type="passenger"/>
    <trip id="veh199" depart="53.08" departLane="best" from="-7294206" to="7095958" type="passenger"/>
    <trip id="veh200" depart="53.35" departLane="best" from="-7116191#4" to="7117915#4" type="passenger"/>
    <trip id="veh201" depart="53.62" departLane="best" from="-80566602#4" to="-7123425#0" type="passenger"/>
    <trip id="veh202" depart="53.88" departLane="best" from="265007775#0" to="-105141649#4" type="passenger"/>
    <trip id="veh203" depart="54.15" departLane="best" from="7105326#0" to="7196807" type="passenger"/>
    <trip id="veh204" depart="54.42" departLane="best" from="-62207073#2" to="-80565714#1" type="passenger"/>
    <trip id="veh205" depart="54.68" departLane="best" from="-7106793" to="80565076#2" type="passenger"/>
    <trip id="veh206" depart="54.95" departLane="best" from="106624223#2" to="-125185719#2" type="passenger"/>
    <trip id="veh207" depart="55.22" departLane="best" from="-7151339#2" to="7252579" type="passenger"/>
    <trip id="veh208" depart="55.48" departLane="best" from="-7337276#2" to="7229773" type="passenger"/>
    <trip id="veh209" depart="55.75" departLane="best" from="35147684" to="80668033#2" type="passenger"/>
    <trip id="veh210" depart="56.02" departLane="best" from="125367085" to="7341119" type="passenger"/>
    <trip id="veh211" depart="56.28" departLane="best" from="7241750" to="7085899#7" type="passenger"/>
    <trip id="veh212" depart="56.55" departLane="best" from="7084393#0" to="123541512#1-AddedOnRampEdge" type="passenger"/>
    <trip id="veh213" depart="56.82" departLane="best" from="7152027#1" to="202770799#1" type="passenger"/>
    <trip id="veh214" depart="57.08" departLane="best" from="7245627#0" to="7152027#3" type="passenger"/>
    <trip id="veh215" depart="57.35" departLane="best" from="-80565098#2" to="-7142669#0" type="passenger"/>
    <trip id="veh217" depart="57.88" departLane="best" from="7116191#1" to="125185719#6" type="passenger"/>
    <trip id="veh218" depart="58.15" departLane="best" from="182019820#12" to="-7152027#2" type="passenger"/>
    <trip id="veh219" depart="58.42" departLane="best" from="-202770800#0" to="-7168458" type="passenger"/>
    <trip id="veh220" depart="58.68" departLane="best" from="-7174292" to="-7221323" type="passenger"/>
    <trip id="veh221" depart="58.95" departLane="best" from="118584064#2" to="-359637454" type="passenger"/>
    <trip id="veh222" depart="59.22" departLane="best" from="-7145017" to="7117915#0" type="passenger"/>
    <trip id="veh223" depart="59.48" departLane="best" from="7042982" to="-125367078" type="passenger"/>
    <trip id="veh224" depart="59.75" departLane="best" from="-7287836" to="182019820#5" type="passenger"/>
    <trip id="veh225" depart="60.02" departLane="best" from="-7297392" to="-7112498#2" type="passenger"/>
    <trip id="veh226" depart="60.28" departLane="best" from="125367062" to="7117915#3" type="passenger"/>
    <trip id="veh227" depart="60.55" departLane="best" from="7198338#1" to="7179123" type="passenger"/>
    <trip id="veh228" depart="60.82" departLane="best" from="-7249756#2" to="7166974#1" type="passenger"/>
    <trip id="veh229" depart="61.08" departLane="best" from="7196933#0" to="7341683" type="passenger"/>
    <trip id="veh230" depart="61.35" departLane="best" from="-7307401#1" to="7157786" type="passenger"/>
    <trip id="veh231" depart="61.62" departLane="best" from="118651690#1" to="7081734#1" type="passenger"/>
    <trip id="veh232" depart="61.88" departLane="best" from="-7123182#4" to="-7117365#3" type="passenger"/>
    <trip id="veh233" depart="62.15" departLane="best" from="-7326169#2" to="-118651687#0" type="passenger"/>
    <trip id="veh234" depart="62.42" departLane="best" from="-7237382#1" to="7116191#2" type="passenger"/>
    <trip id="veh235" depart="62.68" departLane="best" from="-7281810" to="-7080847#8" type="passenger"/>
    <trip id="veh236" depart="62.95" departLane="best" from="-80565076#0" to="-346925177" type="passenger"/>
    <trip id="veh237" depart="63.22" departLane="best" from="182019820#0" to="-118584064#2" type="passenger"/>
    <trip id="veh238" depart="63.49" departLane="best" from="-7277027" to="265007775#8" type="passenger"/>
    <trip id="veh240" depart="64.02" departLane="best" from="-7094319" to="106624232#3" type="passenger"/>
    <trip id="veh241" depart="64.29" departLane="best" from="-125185719#3" to="-7288838" type="passenger"/>
    <trip id="veh242" depart="64.55" departLane="best" from="-7117915#5" to="-7233219#2" type="passenger"/>
    <trip id="veh243" depart="64.82" departLane="best" from="7112498#1" to="-7288838" type="passenger"/>
    <trip id="veh245" depart="65.35" departLane="best" from="-7152027#1" to="-142846201" type="passenger"/>
    <trip id="veh246" depart="65.62" departLane="best" from="-118584064#1" to="182019820#14" type="passenger"/>
    <trip id="veh248" depart="66.15" departLane="best" from="202770843" to="7199742#1" type="passenger"/>
    <trip id="veh249" depart="66.42" departLane="best" from="202770988" to="7168454" type="passenger"/>
    <trip id="veh251" depart="66.95" departLane="best" from="-118584064#2" to="-62207109#0" type="passenger"/>
    <trip id="veh252" depart="67.22" departLane="best" from="-7085899#6" to="7110444#0" type="passenger"/>
    <trip id="veh253" depart="67.49" departLane="best" from="123541496" to="-7117365#1" type="passenger"/>
    <trip id="veh254" depart="67.75" departLane="best" from="62207109#1" to="7179123" type="passenger"/>
    <trip id="veh255" depart="68.02" departLane="best" from="-7104204" to="7084871#1" type="passenger"/>
    <trip id="veh256" depart="68.29" departLane="best" from="7100362" to="-202770843" type="passenger"/>
    <trip id="veh257" depart="68.55" departLane="best" from="7145017" to="80565098#4" type="passenger"/>
    <trip id="veh258" depart="68.82" departLane="best" from="-62207109#2" to="-118584064#0" type="passenger"/>
    <trip id="veh259" depart="69.09" departLane="best" from="-7229773" to="7112498#5" type="passenger"/>
    <trip id="veh260" depart="69.35" departLane="best" from="7327325#3" to="-7318375#5" type="passenger"/>
    <trip id="veh261" depart="69.62" departLane="best" from="7080847#5" to="-125367097" type="passenger"/>
    <trip id="veh262" depart="69.89" departLane="best" from="61635505#0" to="7094519#3" type="passenger"/>
    <trip id="veh263" depart="70.15" departLane="best" from="-357842386" to="7196933#3" type="passenger"/>
    <trip id="veh264" depart="70.42" departLane="best" from="7196807" to="7080847#6" type="passenger"/>
    <trip id="veh265" depart="70.69" departLane="best" from="-7084871#1" to="80566602#4" type="passenger"/>
    <trip id="veh266" depart="70.95" departLane="best" from="-7311689#0" to="-7285042#0" type="passenger"/>
    <trip id="veh267" depart="71.22" departLane="best" from="105141649#0" to="-7245637#0" type="passenger"/>
    <trip id="veh268" depart="71.49" departLane="best" from="7188731#1" to="7236769" type="passenger"/>
    <trip id="veh269" depart="71.75" departLane="best" from="-62207073#1" to="80565078" type="passenger"/>
    <trip id="veh270" depart="72.02" departLane="best" from="7070561" to="-80566602#1" type="passenger"/>
    <trip id="veh271" depart="72.29" departLane="best" from="7094519#1" to="80565710#1" type="passenger"/>
    <trip id="veh272" depart="72.55" departLane="best" from="106624250" to="118682210#0" type="passenger"/>
    <trip id="veh273" depart="72.82" departLane="best" from="-7326169#1" to="7150791#4" type="passenger"/>
    <trip id="veh274" depart="73.09" departLane="best" from="-7168454" to="7256988" type="passenger"/>
    <trip id="veh276" depart="73.62" departLane="best" from="7233219#2" to="-7123425#0" type="passenger"/>
    <trip id="veh277" depart="73.89" departLane="best" from="-7341683" to="7085899#3" type="passenger"/>
    <trip id="veh278" depart="74.16" departLane="best" from="-7269854" to="-118584136#1" type="passenger"/>
    <trip id="veh279" depart="74.42" departLane="best" from="7196933#0" to="-7094519#1" type="passenger"/>
    <trip id="veh280" depart="74.69" departLane="best" from="-7117915#5" to="7215344" type="passenger"/>
    <trip id="veh281" depart="74.96" departLane="best" from="-7245627#1" to="7276317#0" type="passenger"/>
    <trip id="veh282" depart="75.22" departLane="best" from="7023439" to="-7162977" type="passenger"/>
    <trip id="veh283" depart="75.49" departLane="best" from="-106624229#3" to="7339390#1" type="passenger"/>
    <trip id="veh284" depart="75.76" departLane="best" from="-202771058#0" to="7148398#0" type="passenger"/>
    <trip id="veh285" depart="76.02" departLane="best" from="-80566601#0" to="7172369" type="passenger"/>
    <trip id="veh286" depart="76.29" departLane="best" from="61635505#0" to="7102287" type="passenger"/>
    <trip id="veh287" depart="76.56" departLane="best" from="-80566601#1" to="7205529" type="passenger"/>
    <trip id="veh289" depart="77.09" departLane="best" from="61635505#0" to="-7199585" type="passenger"/>
    <trip id="veh290" depart="77.36" departLane="best" from="125185719#4" to="118584064#3" type="passenger"/>
    <trip id="veh291" depart="77.62" departLane="best" from="106624234#1" to="-80565714#2" type="passenger"/>
    <trip id="veh293" depart="78.16" departLane="best" from="7040996" to="-7151339#0" type="passenger"/>
    <trip id="veh294" depart="78.42" departLane="best" from="-7152027#0" to="-265007775#0" type="passenger"/>
    <trip id="veh295" depart="78.69" departLane="best" from="-7116191#1" to="-265007775#0" type="passenger"/>
    <trip id="veh296" depart="78.96" departLane="best" from="106624244" to="7174776" type="passenger"/>
    <trip id="veh297" depart="79.22" departLane="best" from="-7108519" to="-7117365#0" type="passenger"/>
    <trip id="veh298" depart="79.49" departLane="best" from="-80565714#4" to="7150260#1" type="passenger"/>
    <trip id="veh299" depart="79.76" departLane="best" from="80565714#0" to="125367076#1" type="passenger"/>
    <trip id="veh300" depart="80.02" departLane="best" from="-7196933#1" to="-202770797" type="passenger"/>
    <trip id="veh301" depart="80.29" departLane="best" from="-7116191#4" to="-7117437#5" type="passenger"/>
    <trip id="veh302" depart="80.56" departLane="best" from="-7108270#1" to="-106624226" type="passenger"/>
    <trip id="veh303" depart="80.82" departLane="best" from="106624243#3" to="-7152027#2" type="passenger"/>