<?xml version="1.0" encoding="UTF-8"?>

<!-- generated on Sun Dec 11 16:26:22 2016 by SUMO netconvert Version 0.28.0
<?xml version="1.0" encoding="UTF-8"?>

<configuration xmlns:xsi="http://www.w3.org/2001/XMLSchema-instance" xsi:noNamespaceSchemaLocation="http://sumo.dlr.de/xsd/netconvertConfiguration.xsd">

    <input>
        <type-files value="/usr/share/sumo/tools/../data/typemap/osmNetconvert.typ.xml"/>
        <osm-files value="osm_bbox.osm.xml"/>
    </input>

    <output>
        <output-file value="/home/chl/cs240/2016-12-11-16-26-17/osm.net.xml"/>
        <output.street-names value="true"/>
        <output.original-names value="true"/>
    </output>

    <projection>
        <proj.utm value="true"/>
    </projection>

    <tls_building>
        <tls.discard-simple value="true"/>
        <tls.join value="true"/>
        <tls.guess-signals value="true"/>
    </tls_building>

    <ramp_guessing>
        <ramps.guess value="true"/>
    </ramp_guessing>

    <processing>
        <geometry.remove value="true"/>
        <roundabouts.guess value="true"/>
        <junctions.join value="true"/>
        <junctions.corner-detail value="5"/>
    </processing>

    <report>
        <verbose value="true"/>
    </report>

</configuration>
-->

<net version="0.27" junctionCornerDetail="5" xmlns:xsi="http://www.w3.org/2001/XMLSchema-instance" xsi:noNamespaceSchemaLocation="http://sumo.dlr.de/xsd/net_file.xsd">

    <location netOffset="-465919.68,-3754526.83" convBoundary="0.00,0.00,7287.71,7723.22" origBoundary="-117.368931,33.930852,-117.289892,34.000355" projParameter="+proj=utm +zone=11 +ellps=WGS84 +datum=WGS84 +units=m +no_defs"/>

    <type id="highway.bridleway" priority="1" numLanes="1" speed="2.78" allow="pedestrian" oneway="1" width="2.00"/>
    <type id="highway.bus_guideway" priority="1" numLanes="1" speed="8.33" allow="bus" oneway="1"/>
    <type id="highway.cycleway" priority="1" numLanes="1" speed="5.56" allow="bicycle" oneway="0" width="1.00"/>
    <type id="highway.footway" priority="1" numLanes="1" speed="8.33" allow="pedestrian" oneway="1" width="2.00"/>
    <type id="highway.ford" priority="1" numLanes="1" speed="2.78" allow="army" oneway="0"/>
    <type id="highway.living_street" priority="3" numLanes="1" speed="2.78" disallow="tram rail_urban rail rail_electric ship" oneway="0"/>
    <type id="highway.motorway" priority="13" numLanes="2" speed="44.44" allow="private emergency authority army vip passenger hov taxi bus coach delivery truck trailer motorcycle evehicle custom1 custom2" oneway="1"/>
    <type id="highway.motorway_link" priority="12" numLanes="1" speed="22.22" allow="private emergency authority army vip passenger hov taxi bus coach delivery truck trailer motorcycle evehicle custom1 custom2" oneway="1"/>
    <type id="highway.path" priority="1" numLanes="1" speed="2.78" allow="bicycle pedestrian" oneway="1" width="2.00"/>
    <type id="highway.pedestrian" priority="1" numLanes="1" speed="8.33" allow="pedestrian" oneway="1" width="2.00"/>
    <type id="highway.primary" priority="9" numLanes="2" speed="27.78" disallow="tram rail_urban rail rail_electric ship" oneway="0"/>
    <type id="highway.primary_link" priority="8" numLanes="1" speed="22.22" disallow="tram rail_urban rail rail_electric ship" oneway="0"/>
    <type id="highway.raceway" priority="14" numLanes="2" speed="83.33" allow="vip" oneway="0"/>
    <type id="highway.residential" priority="4" numLanes="1" speed="13.89" disallow="tram rail_urban rail rail_electric ship" oneway="0"/>
    <type id="highway.secondary" priority="7" numLanes="2" speed="27.78" disallow="tram rail_urban rail rail_electric ship" oneway="0"/>
    <type id="highway.secondary_link" priority="6" numLanes="1" speed="22.22" disallow="tram rail_urban rail rail_electric ship" oneway="0"/>
    <type id="highway.service" priority="2" numLanes="1" speed="5.56" allow="delivery bicycle pedestrian" oneway="0"/>
    <type id="highway.services" priority="1" numLanes="1" speed="8.33" disallow="tram rail_urban rail rail_electric ship" oneway="0"/>
    <type id="highway.stairs" priority="1" numLanes="1" speed="1.39" allow="pedestrian" oneway="1" width="2.00"/>
    <type id="highway.step" priority="1" numLanes="1" speed="1.39" allow="pedestrian" oneway="1" width="2.00"/>
    <type id="highway.steps" priority="1" numLanes="1" speed="1.39" allow="pedestrian" oneway="1" width="2.00"/>
    <type id="highway.tertiary" priority="6" numLanes="1" speed="22.22" disallow="tram rail_urban rail rail_electric ship" oneway="0"/>
    <type id="highway.tertiary_link" priority="5" numLanes="1" speed="22.22" disallow="tram rail_urban rail rail_electric ship" oneway="0"/>
    <type id="highway.track" priority="1" numLanes="1" speed="5.56" disallow="tram rail_urban rail rail_electric ship" oneway="0"/>
    <type id="highway.trunk" priority="11" numLanes="2" speed="27.78" disallow="tram rail_urban rail rail_electric bicycle pedestrian ship" oneway="0"/>
    <type id="highway.trunk_link" priority="10" numLanes="1" speed="22.22" disallow="tram rail_urban rail rail_electric bicycle pedestrian ship" oneway="0"/>
    <type id="highway.unclassified" priority="5" numLanes="1" speed="13.89" disallow="tram rail_urban rail rail_electric ship" oneway="0"/>
    <type id="highway.unsurfaced" priority="1" numLanes="1" speed="8.33" disallow="tram rail_urban rail rail_electric ship" oneway="0"/>
    <type id="railway.light_rail" priority="15" numLanes="1" speed="27.78" allow="rail_urban" oneway="1"/>
    <type id="railway.preserved" priority="15" numLanes="1" speed="27.78" allow="rail" oneway="1"/>
    <type id="railway.rail" priority="15" numLanes="1" speed="83.33" allow="rail rail_electric" oneway="1"/>
    <type id="railway.subway" priority="15" numLanes="1" speed="27.78" allow="rail_urban" oneway="1"/>
    <type id="railway.tram" priority="15" numLanes="1" speed="13.89" allow="tram" oneway="1"/>

    <edge id=":1211773892_0" function="internal">
        <lane id=":1211773892_0_0" index="0" disallow="tram rail_urban rail rail_electric ship" speed="27.78" length="4.82" shape="1890.88,7723.20 1890.07,7724.44 1889.25,7724.86 1888.42,7724.46 1887.58,7723.24"/>
    </edge>
    <edge id=":1225663498_0" function="internal">
        <lane id=":1225663498_0_0" index="0" disallow="tram rail_urban rail rail_electric ship" speed="20.84" length="5.04" shape="2280.56,4160.55 2280.37,4159.17 2279.79,4158.19 2278.82,4157.60 2277.46,4157.41"/>
    </edge>
    <edge id=":1225663498_1" function="internal">
        <lane id=":1225663498_1_0" index="0" disallow="tram rail_urban rail rail_electric ship" speed="13.89" length="16.15" shape="2280.56,4160.55 2280.64,4144.40"/>
    </edge>
    <edge id=":1225663498_2" function="internal">
        <lane id=":1225663498_2_0" index="0" disallow="tram rail_urban rail rail_electric ship" speed="20.84" length="13.20" shape="2280.56,4160.55 2280.97,4156.28 2282.19,4153.24 2284.23,4151.44 2287.09,4150.87"/>
    </edge>
    <edge id=":1225663498_3" function="internal">
        <lane id=":1225663498_3_0" index="0" disallow="tram rail_urban rail rail_electric ship" speed="13.89" length="4.82" shape="2280.56,4160.55 2281.39,4159.31 2282.21,4158.90 2283.04,4159.31 2283.86,4160.55"/>
    </edge>
    <edge id=":1225663498_4" function="internal">
        <lane id=":1225663498_4_0" index="0" disallow="tram rail_urban rail rail_electric ship" speed="20.84" length="5.02" shape="2286.99,4157.47 2285.62,4157.64 2284.64,4158.22 2284.06,4159.18 2283.86,4160.55"/>
    </edge>
    <edge id=":1225663498_5" function="internal">
        <lane id=":1225663498_5_0" index="0" disallow="tram rail_urban rail rail_electric ship" speed="27.78" length="9.56" shape="2286.99,4157.47 2277.46,4157.41"/>
        <lane id=":1225663498_5_1" index="1" disallow="tram rail_urban rail rail_electric ship" speed="27.78" length="9.56" shape="2287.04,4154.17 2277.45,4154.11"/>
    </edge>
    <edge id=":1225663498_7" function="internal">
        <lane id=":1225663498_7_0" index="0" disallow="tram rail_urban rail rail_electric ship" speed="20.84" length="4.50" shape="2287.04,4154.17 2284.20,4153.52 2283.03,4152.45"/>
    </edge>
    <edge id=":1225663498_8" function="internal">
        <lane id=":1225663498_8_0" index="0" disallow="tram rail_urban rail rail_electric ship" speed="27.78" length="2.41" shape="2287.04,4154.17 2285.82,4153.33 2285.42,4152.50"/>
    </edge>
    <edge id=":1225663498_18" function="internal">
        <lane id=":1225663498_18_0" index="0" speed="20.84" length="8.66" shape="2283.03,4152.45 2282.19,4151.68 2281.00,4148.63 2280.64,4144.40"/>
    </edge>
    <edge id=":1225663498_19" function="internal">
        <lane id=":1225663498_19_0" index="0" speed="27.78" length="2.41" shape="2285.42,4152.50 2285.84,4151.68 2287.09,4150.87"/>
    </edge>
    <edge id=":1225663498_9" function="internal">
        <lane id=":1225663498_9_0" index="0" disallow="tram rail_urban rail rail_electric ship" speed="20.84" length="5.11" shape="2283.94,4144.43 2284.13,4145.79 2284.73,4146.76 2285.73,4147.36 2287.14,4147.57"/>
    </edge>
    <edge id=":1225663498_10" function="internal">
        <lane id=":1225663498_10_0" index="0" disallow="tram rail_urban rail rail_electric ship" speed="13.89" length="16.12" shape="2283.94,4144.43 2283.86,4160.55"/>
    </edge>
    <edge id=":1225663498_11" function="internal">
        <lane id=":1225663498_11_0" index="0" disallow="tram rail_urban rail rail_electric ship" speed="20.84" length="13.10" shape="2283.94,4144.43 2283.50,4148.66 2282.27,4151.68 2280.25,4153.50 2277.45,4154.11"/>
    </edge>
    <edge id=":1225663498_12" function="internal">
        <lane id=":1225663498_12_0" index="0" disallow="tram rail_urban rail rail_electric ship" speed="13.89" length="4.82" shape="2283.94,4144.43 2283.10,4145.66 2282.27,4146.06 2281.45,4145.64 2280.64,4144.40"/>
    </edge>
    <edge id=":1225663498_13" function="internal">
        <lane id=":1225663498_13_0" index="0" disallow="tram rail_urban rail rail_electric ship" speed="20.84" length="5.09" shape="2277.42,4147.51 2278.82,4147.31 2279.82,4146.73 2280.43,4145.76 2280.64,4144.40"/>
    </edge>
    <edge id=":1225663498_14" function="internal">
        <lane id=":1225663498_14_0" index="0" disallow="tram rail_urban rail rail_electric ship" speed="27.78" length="9.69" shape="2277.42,4147.51 2287.14,4147.57"/>
        <lane id=":1225663498_14_1" index="1" disallow="tram rail_urban rail rail_electric ship" speed="27.78" length="9.69" shape="2277.43,4150.81 2287.09,4150.87"/>
    </edge>
    <edge id=":1225663498_16" function="internal">
        <lane id=":1225663498_16_0" index="0" disallow="tram rail_urban rail rail_electric ship" speed="20.84" length="4.55" shape="2277.43,4150.81 2280.25,4151.41 2281.48,4152.54"/>
    </edge>
    <edge id=":1225663498_17" function="internal">
        <lane id=":1225663498_17_0" index="0" disallow="tram rail_urban rail rail_electric ship" speed="27.78" length="2.41" shape="2277.43,4150.81 2278.67,4151.63 2279.09,4152.46"/>
    </edge>
    <edge id=":1225663498_20" function="internal">
        <lane id=":1225663498_20_0" index="0" speed="20.84" length="8.60" shape="2281.48,4152.54 2282.25,4153.24 2283.46,4156.28 2283.86,4160.55"/>
    </edge>
    <edge id=":1225663498_21" function="internal">
        <lane id=":1225663498_21_0" index="0" speed="27.78" length="2.41" shape="2279.09,4152.46 2278.68,4153.28 2277.45,4154.11"/>
    </edge>
    <edge id=":1225663513_0" function="internal">
        <lane id=":1225663513_0_0" index="0" allow="private emergency authority army vip passenger hov taxi bus coach delivery truck trailer motorcycle evehicle custom1 custom2" speed="33.33" length="5.00" shape="3473.76,4578.31 3470.55,4582.15"/>
    </edge>
    <edge id=":1225663513_1" function="internal">
        <lane id=":1225663513_1_0" index="0" allow="private emergency authority army vip passenger hov taxi bus coach delivery truck trailer motorcycle evehicle custom1 custom2" speed="44.44" length="8.68" shape="3473.56,4573.29 3468.01,4580.05"/>
        <lane id=":1225663513_1_1" index="1" allow="private emergency authority army vip passenger hov taxi bus coach delivery truck trailer motorcycle evehicle custom1 custom2" speed="44.44" length="8.68" shape="3470.98,4571.23 3465.46,4577.95"/>
        <lane id=":1225663513_1_2" index="2" allow="private emergency authority army vip passenger hov taxi bus coach delivery truck trailer motorcycle evehicle custom1 custom2" speed="44.44" length="8.68" shape="3468.41,4569.16 3462.92,4575.85"/>
        <lane id=":1225663513_1_3" index="3" allow="private emergency authority army vip passenger hov taxi bus coach delivery truck trailer motorcycle evehicle custom1 custom2" speed="44.44" length="8.68" shape="3465.84,4567.10 3460.37,4573.75"/>
    </edge>
    <edge id=":1225663665_0" function="internal">
        <lane id=":1225663665_0_0" index="0" allow="private emergency authority army vip passenger hov taxi bus coach delivery truck trailer motorcycle evehicle custom1 custom2" speed="33.33" length="5.00" shape="3425.81,4566.91 3428.91,4562.99"/>
    </edge>
    <edge id=":1225663665_1" function="internal">
        <lane id=":1225663665_1_0" index="0" allow="private emergency authority army vip passenger hov taxi bus coach delivery truck trailer motorcycle evehicle custom1 custom2" speed="44.44" length="10.18" shape="3428.39,4568.97 3434.79,4560.99"/>
        <lane id=":1225663665_1_1" index="1" allow="private emergency authority army vip passenger hov taxi bus coach delivery truck trailer motorcycle evehicle custom1 custom2" speed="44.44" length="10.18" shape="3430.96,4571.03 3437.35,4563.07"/>
        <lane id=":1225663665_1_2" index="2" allow="private emergency authority army vip passenger hov taxi bus coach delivery truck trailer motorcycle evehicle custom1 custom2" speed="44.44" length="10.18" shape="3433.54,4573.10 3439.91,4565.16"/>
        <lane id=":1225663665_1_3" index="3" allow="private emergency authority army vip passenger hov taxi bus coach delivery truck trailer motorcycle evehicle custom1 custom2" speed="44.44" length="10.18" shape="3436.12,4575.16 3442.46,4567.24"/>
        <lane id=":1225663665_1_4" index="4" allow="private emergency authority army vip passenger hov taxi bus coach delivery truck trailer motorcycle evehicle custom1 custom2" speed="44.44" length="10.18" shape="3438.70,4577.22 3445.02,4569.33"/>
    </edge>
    <edge id=":1226624821_0" function="internal">
        <lane id=":1226624821_0_0" index="0" disallow="tram rail_urban rail rail_electric ship" speed="11.18" length="9.50" shape="3892.47,5085.02 3892.49,5094.52"/>
    </edge>
    <edge id=":1226624821_1" function="internal">
        <lane id=":1226624821_1_0" index="0" allow="delivery bicycle pedestrian" speed="8.37" length="7.86" shape="3892.47,5085.02 3892.28,5087.82 3891.70,5089.82 3890.73,5091.02 3889.37,5091.42"/>
    </edge>
    <edge id=":1226624821_2" function="internal">
        <lane id=":1226624821_2_0" index="0" disallow="tram rail_urban rail rail_electric ship" speed="8.37" length="7.85" shape="3889.37,5088.12 3890.73,5088.52 3891.70,5089.72 3892.29,5091.72 3892.49,5094.52"/>
    </edge>
    <edge id=":1226624821_3" function="internal">
        <lane id=":1226624821_3_0" index="0" allow="delivery bicycle pedestrian" speed="5.56" length="4.82" shape="3889.37,5088.12 3890.61,5088.95 3891.02,5089.77 3890.61,5090.60 3889.37,5091.42"/>
    </edge>
    <edge id=":1226624844_0" function="internal">
        <lane id=":1226624844_0_0" index="0" disallow="tram rail_urban rail rail_electric ship" speed="22.22" length="4.53" shape="3491.32,4996.99 3491.25,4995.95 3491.03,4995.25 3490.59,4994.63 3489.87,4993.85"/>
        <lane id=":1226624844_0_1" index="1" disallow="tram rail_urban rail rail_electric ship" speed="22.22" length="4.53" shape="3491.32,4996.99 3492.29,4991.61"/>
    </edge>
    <edge id=":1226624844_2" function="internal">
        <lane id=":1226624844_2_0" index="0" disallow="tram rail_urban rail rail_electric ship" speed="22.22" length="3.38" shape="3491.32,4996.99 3491.72,4995.47 3492.40,4994.77 3493.23,4994.89"/>
    </edge>
    <edge id=":1226624844_5" function="internal">
        <lane id=":1226624844_5_0" index="0" speed="22.22" length="1.71" shape="3493.23,4994.89 3493.36,4994.90 3494.61,4995.86"/>
    </edge>
    <edge id=":1226624844_3" function="internal">
        <lane id=":1226624844_3_0" index="0" disallow="tram rail_urban rail rail_electric ship" speed="22.22" length="9.85" shape="3497.14,4987.13 3498.04,4989.26 3497.03,4991.04 3495.43,4993.04 3494.61,4995.86"/>
    </edge>
    <edge id=":1226624844_4" function="internal">
        <lane id=":1226624844_4_0" index="0" disallow="tram rail_urban rail rail_electric ship" speed="22.22" length="3.20" shape="3494.71,4989.37 3494.95,4990.84 3494.62,4991.70 3493.86,4991.92"/>
    </edge>
    <edge id=":1226624844_6" function="internal">
        <lane id=":1226624844_6_0" index="0" speed="22.22" length="1.62" shape="3493.86,4991.92 3493.74,4991.96 3492.29,4991.61"/>
    </edge>
    <edge id=":1226624845_0" function="internal">
        <lane id=":1226624845_0_0" index="0" allow="delivery bicycle pedestrian" speed="5.56" length="4.82" shape="3863.66,4718.84 3862.84,4720.09 3862.02,4720.50 3861.19,4720.10 3860.36,4718.86"/>
    </edge>
    <edge id=":1226624879_0" function="internal">
        <lane id=":1226624879_0_0" index="0" disallow="tram rail_urban rail rail_electric ship" speed="22.22" length="9.56" shape="4177.66,4795.87 4177.56,4786.31"/>
    </edge>
    <edge id=":1226624879_1" function="internal">
        <lane id=":1226624879_1_0" index="0" disallow="tram rail_urban rail rail_electric ship" speed="13.35" length="5.31" shape="4177.66,4795.87 4178.02,4793.06 4179.19,4791.04 4179.31,4790.97"/>
    </edge>
    <edge id=":1226624879_2" function="internal">
        <lane id=":1226624879_2_0" index="0" disallow="tram rail_urban rail rail_electric ship" speed="22.22" length="2.41" shape="4177.66,4795.87 4178.46,4794.62 4179.28,4794.19"/>
    </edge>
    <edge id=":1226624879_9" function="internal">
        <lane id=":1226624879_9_0" index="0" speed="13.35" length="5.04" shape="4179.31,4790.97 4181.18,4789.81 4183.99,4789.37"/>
    </edge>
    <edge id=":1226624879_10" function="internal">
        <lane id=":1226624879_10_0" index="0" speed="22.22" length="2.41" shape="4179.28,4794.19 4180.11,4794.59 4180.96,4795.81"/>
    </edge>
    <edge id=":1226624879_3" function="internal">
        <lane id=":1226624879_3_0" index="0" disallow="tram rail_urban rail rail_electric ship" speed="13.35" length="5.02" shape="4184.04,4792.67 4182.67,4792.88 4181.70,4793.48 4181.13,4794.45 4180.96,4795.81"/>
    </edge>
    <edge id=":1226624879_4" function="internal">
        <lane id=":1226624879_4_0" index="0" disallow="tram rail_urban rail rail_electric ship" speed="13.35" length="10.37" shape="4184.04,4792.67 4181.21,4792.30 4179.19,4791.12 4177.97,4789.13 4177.56,4786.31"/>
    </edge>
    <edge id=":1226624879_5" function="internal">
        <lane id=":1226624879_5_0" index="0" disallow="tram rail_urban rail rail_electric ship" speed="4.47" length="4.82" shape="4184.04,4792.67 4182.79,4791.86 4182.36,4791.04 4182.76,4790.21 4183.99,4789.37"/>
    </edge>
    <edge id=":1226624879_6" function="internal">
        <lane id=":1226624879_6_0" index="0" disallow="tram rail_urban rail rail_electric ship" speed="13.35" length="5.01" shape="4180.86,4786.30 4181.06,4787.66 4181.65,4788.62 4182.62,4789.19 4183.99,4789.37"/>
    </edge>
    <edge id=":1226624879_7" function="internal">
        <lane id=":1226624879_7_0" index="0" disallow="tram rail_urban rail rail_electric ship" speed="22.22" length="9.52" shape="4180.86,4786.30 4180.96,4795.81"/>
    </edge>
    <edge id=":1226624879_8" function="internal">
        <lane id=":1226624879_8_0" index="0" disallow="tram rail_urban rail rail_electric ship" speed="22.22" length="2.41" shape="4180.86,4786.30 4180.04,4787.54 4179.21,4787.95"/>
    </edge>
    <edge id=":1226624879_11" function="internal">
        <lane id=":1226624879_11_0" index="0" speed="22.22" length="2.41" shape="4179.21,4787.95 4178.39,4787.55 4177.56,4786.31"/>
    </edge>
    <edge id=":1226624901_0" function="internal">
        <lane id=":1226624901_0_0" index="0" disallow="tram rail_urban rail rail_electric ship" speed="8.37" length="5.03" shape="4048.52,4958.83 4047.61,4957.80 4046.58,4957.32 4045.45,4957.39 4044.21,4958.00"/>
    </edge>
    <edge id=":1226624901_1" function="internal">
        <lane id=":1226624901_1_0" index="0" disallow="tram rail_urban rail rail_electric ship" speed="8.37" length="10.38" shape="4048.52,4958.83 4047.30,4956.25 4047.19,4953.91 4048.19,4951.79 4050.32,4949.92"/>
    </edge>
    <edge id=":1226624901_2" function="internal">
        <lane id=":1226624901_2_0" index="0" allow="delivery bicycle pedestrian" speed="5.56" length="4.82" shape="4048.52,4958.83 4048.53,4957.34 4048.99,4956.54 4049.90,4956.43 4051.27,4957.01"/>
    </edge>
    <edge id=":1226624901_3" function="internal">
        <lane id=":1226624901_3_0" index="0" allow="delivery bicycle pedestrian" speed="8.37" length="5.04" shape="4052.13,4952.68 4051.10,4953.59 4050.62,4954.61 4050.67,4955.75 4051.27,4957.01"/>
    </edge>
    <edge id=":1226624901_4" function="internal">
        <lane id=":1226624901_4_0" index="0" disallow="tram rail_urban rail rail_electric ship" speed="11.18" length="9.54" shape="4052.13,4952.68 4044.21,4958.00"/>
    </edge>
    <edge id=":1226624901_5" function="internal">
        <lane id=":1226624901_5_0" index="0" disallow="tram rail_urban rail rail_electric ship" speed="11.18" length="2.41" shape="4052.13,4952.68 4050.64,4952.66 4049.85,4952.20"/>
    </edge>
    <edge id=":1226624901_9" function="internal">
        <lane id=":1226624901_9_0" index="0" speed="11.18" length="2.41" shape="4049.85,4952.20 4049.74,4951.28 4050.32,4949.92"/>
    </edge>
    <edge id=":1226624901_6" function="internal">
        <lane id=":1226624901_6_0" index="0" disallow="tram rail_urban rail rail_electric ship" speed="11.18" length="9.62" shape="4042.34,4955.29 4050.32,4949.92"/>
    </edge>
    <edge id=":1226624901_7" function="internal">
        <lane id=":1226624901_7_0" index="0" allow="delivery bicycle pedestrian" speed="8.37" length="5.37" shape="4042.34,4955.29 4044.90,4954.01 4047.25,4953.87 4047.39,4953.94"/>
    </edge>
    <edge id=":1226624901_8" function="internal">
        <lane id=":1226624901_8_0" index="0" disallow="tram rail_urban rail rail_electric ship" speed="11.18" length="2.41" shape="4042.34,4955.29 4043.83,4955.26 4044.63,4955.71"/>
    </edge>
    <edge id=":1226624901_10" function="internal">
        <lane id=":1226624901_10_0" index="0" speed="8.37" length="5.05" shape="4047.39,4953.94 4049.37,4954.87 4051.27,4957.01"/>
    </edge>
    <edge id=":1226624901_11" function="internal">
        <lane id=":1226624901_11_0" index="0" speed="11.18" length="2.41" shape="4044.63,4955.71 4044.76,4956.62 4044.21,4958.00"/>
    </edge>
    <edge id=":1226624937_0" function="internal">
        <lane id=":1226624937_0_0" index="0" disallow="tram rail_urban rail rail_electric ship" speed="18.05" length="5.00" shape="4175.42,4573.21 4175.21,4571.85 4174.61,4570.89 4173.64,4570.32 4172.28,4570.14"/>
    </edge>
    <edge id=":1226624937_1" function="internal">
        <lane id=":1226624937_1_0" index="0" disallow="tram rail_urban rail rail_electric ship" speed="22.22" length="9.49" shape="4175.42,4573.21 4175.33,4563.71"/>
    </edge>
    <edge id=":1226624937_2" function="internal">
        <lane id=":1226624937_2_0" index="0" disallow="tram rail_urban rail rail_electric ship" speed="22.22" length="2.41" shape="4175.42,4573.21 4176.23,4571.96 4177.05,4571.54"/>
    </edge>
    <edge id=":1226624937_9" function="internal">
        <lane id=":1226624937_9_0" index="0" speed="22.22" length="2.41" shape="4177.05,4571.54 4177.88,4571.94 4178.72,4573.17"/>
    </edge>
    <edge id=":1226624937_3" function="internal">
        <lane id=":1226624937_3_0" index="0" disallow="tram rail_urban rail rail_electric ship" speed="22.22" length="9.48" shape="4178.62,4563.69 4178.72,4573.17"/>
    </edge>
    <edge id=":1226624937_4" function="internal">
        <lane id=":1226624937_4_0" index="0" disallow="tram rail_urban rail rail_electric ship" speed="18.05" length="5.27" shape="4178.62,4563.69 4178.25,4566.49 4177.06,4568.50 4176.97,4568.55"/>
    </edge>
    <edge id=":1226624937_5" function="internal">
        <lane id=":1226624937_5_0" index="0" disallow="tram rail_urban rail rail_electric ship" speed="22.22" length="2.41" shape="4178.62,4563.69 4177.81,4564.93 4176.99,4565.35"/>
    </edge>
    <edge id=":1226624937_10" function="internal">
        <lane id=":1226624937_10_0" index="0" speed="18.05" length="5.05" shape="4176.97,4568.55 4175.07,4569.71 4172.28,4570.14"/>
    </edge>
    <edge id=":1226624937_11" function="internal">
        <lane id=":1226624937_11_0" index="0" speed="22.22" length="2.41" shape="4176.99,4565.35 4176.16,4564.94 4175.33,4563.71"/>
    </edge>
    <edge id=":1226624937_6" function="internal">
        <lane id=":1226624937_6_0" index="0" disallow="tram rail_urban rail rail_electric ship" speed="18.05" length="5.00" shape="4172.25,4566.84 4173.60,4566.63 4174.57,4566.04 4175.14,4565.07 4175.33,4563.71"/>
    </edge>
    <edge id=":1226624937_7" function="internal">
        <lane id=":1226624937_7_0" index="0" disallow="tram rail_urban rail rail_electric ship" speed="18.05" length="10.31" shape="4172.25,4566.84 4175.05,4567.21 4177.06,4568.39 4178.28,4570.38 4178.72,4573.17"/>
    </edge>
    <edge id=":1226624937_8" function="internal">
        <lane id=":1226624937_8_0" index="0" disallow="tram rail_urban rail rail_electric ship" speed="13.89" length="4.82" shape="4172.25,4566.84 4173.49,4567.65 4173.91,4568.47 4173.51,4569.30 4172.28,4570.14"/>
    </edge>
    <edge id=":1226624954_0" function="internal">
        <lane id=":1226624954_0_0" index="0" allow="delivery bicycle pedestrian" speed="9.73" length="0.20" shape="3864.98,4574.65 3864.96,4574.70 3864.95,4574.74 3864.96,4574.78 3864.95,4574.84"/>
    </edge>
    <edge id=":1226624954_1" function="internal">
        <lane id=":1226624954_1_0" index="0" disallow="tram rail_urban rail rail_electric ship" speed="13.89" length="2.41" shape="3864.98,4574.65 3863.59,4575.16 3862.68,4575.01"/>
    </edge>
    <edge id=":1226624954_4" function="internal">
        <lane id=":1226624954_4_0" index="0" speed="13.89" length="2.41" shape="3862.68,4575.01 3862.25,4574.19 3862.32,4572.70"/>
    </edge>
    <edge id=":1226624954_2" function="internal">
        <lane id=":1226624954_2_0" index="0" disallow="tram rail_urban rail rail_electric ship" speed="9.73" length="1.26" shape="3861.80,4573.84 3861.91,4573.48 3861.99,4573.23 3862.11,4573.01 3862.32,4572.70"/>
    </edge>
    <edge id=":1226624954_3" function="internal">
        <lane id=":1226624954_3_0" index="0" allow="delivery bicycle pedestrian" speed="5.56" length="2.41" shape="3861.80,4573.84 3862.96,4572.91 3863.88,4572.77"/>
    </edge>
    <edge id=":1226624954_5" function="internal">
        <lane id=":1226624954_5_0" index="0" speed="5.56" length="2.41" shape="3863.88,4572.77 3864.54,4573.41 3864.95,4574.84"/>
    </edge>
    <edge id=":1226624983_0" function="internal">
        <lane id=":1226624983_0_0" index="0" disallow="tram rail_urban rail rail_electric ship" speed="11.18" length="9.50" shape="3893.44,5252.39 3893.54,5261.89"/>
    </edge>
    <edge id=":1226624983_1" function="internal">
        <lane id=":1226624983_1_0" index="0" allow="delivery bicycle pedestrian" speed="8.37" length="7.90" shape="3893.44,5252.39 3893.28,5255.20 3892.70,5257.20 3891.71,5258.40 3890.32,5258.79"/>
    </edge>
    <edge id=":1226624983_2" function="internal">
        <lane id=":1226624983_2_0" index="0" disallow="tram rail_urban rail rail_electric ship" speed="8.37" length="7.88" shape="3890.35,5255.49 3891.72,5255.90 3892.71,5257.10 3893.32,5259.10 3893.54,5261.89"/>
    </edge>
    <edge id=":1226624983_3" function="internal">
        <lane id=":1226624983_3_0" index="0" allow="delivery bicycle pedestrian" speed="5.56" length="4.82" shape="3890.35,5255.49 3891.58,5256.33 3891.99,5257.15 3891.57,5257.98 3890.32,5258.79"/>
    </edge>
    <edge id=":1226625001_0" function="internal">
        <lane id=":1226625001_0_0" index="0" disallow="tram rail_urban rail rail_electric ship" speed="27.78" length="3.14" shape="3572.06,4448.40 3569.68,4446.47"/>
        <lane id=":1226625001_0_1" index="1" disallow="tram rail_urban rail rail_electric ship" speed="27.78" length="3.14" shape="3574.20,4445.88 3571.70,4443.86"/>
    </edge>
    <edge id=":1226625001_2" function="internal">
        <lane id=":1226625001_2_0" index="0" disallow="tram rail_urban rail rail_electric ship" speed="27.78" length="2.41" shape="3574.20,4445.88 3573.78,4444.45 3574.00,4443.55"/>
    </edge>
    <edge id=":1226625001_7" function="internal">
        <lane id=":1226625001_7_0" index="0" speed="27.78" length="2.41" shape="3574.00,4443.55 3574.85,4443.19 3576.33,4443.36"/>
    </edge>
    <edge id=":1226625001_3" function="internal">
        <lane id=":1226625001_3_0" index="0" disallow="tram rail_urban rail rail_electric ship" speed="25.00" length="28.79" shape="3575.74,4438.64 3598.68,4456.04"/>
    </edge>
    <edge id=":1226625001_4" function="internal">
        <lane id=":1226625001_4_0" index="0" disallow="tram rail_urban rail rail_electric ship" speed="27.78" length="16.48" shape="3575.74,4438.64 3598.40,4457.70"/>
        <lane id=":1226625001_4_1" index="1" disallow="tram rail_urban rail rail_electric ship" speed="27.78" length="16.48" shape="3573.72,4441.25 3576.33,4443.36"/>
    </edge>
    <edge id=":1226625001_6" function="internal">